version 3
run Simple-0-20231130-16:37:29-55945
attr configname Simple
attr datetime 20231130-16:37:29
attr datetimef 20231130-163729
attr experiment Simple
attr inifile omnetpp.ini
attr iterationvars ""
attr iterationvarsd ""
attr iterationvarsf ""
attr measurement ""
attr network GradysNetwork
attr processid 55945
attr repetition 0
attr replication #0
attr resultdir results
attr runnumber 0
attr seedset 0
config debug-on-errors true
config image-path ../../../../inet4.5/images
config extends Wifi
config description "Sets up an experiment with the simple drone configuration"
config *.numUAVs 2
config *.groundStation.protocol.customProtocolLocation "\"/home/lac/Documents/Gradys/workspace/gradys-sim-prototype/showcases\""
config *.quads[*].protocol.customProtocolLocation "\"/home/lac/Documents/Gradys/workspace/gradys-sim-prototype/showcases\""
config *.sensors[*].protocol.customProtocolLocation "\"/home/lac/Documents/Gradys/workspace/gradys-sim-prototype/showcases\""
config *.groundStation.protocol.protocol "\"zigzag\""
config *.quads[*].protocol.protocol "\"zigzag\""
config *.sensors[*].protocol.protocol "\"zigzag\""
config *.groundStation.protocol.protocolFileName "\"protocol_sensor\""
config *.quads[*].protocol.protocolFileName "\"protocol_mobile\""
config *.sensors[*].protocol.protocolFileName "\"protocol_sensor\""
config *.groundStation.protocol.protocolGround "\"ZigZagProtocolSensor\""
config *.quads[*].protocol.protocolMobile "\"ZigZagProtocolMobile\""
config *.sensors[*].protocol.protocolSensor "\"ZigZagProtocolSensor\""
config *.quads[0].app[0].destAddresses "\"quads[1] sensors[0] sensors[1] sensors[2] groundStation\""
config *.quads[1].app[0].destAddresses "\"quads[0] sensors[0] sensors[1] sensors[2] groundStation\""
config *.quads[0].mobility.waypointFile "\"paths/voo_sensor1.waypoints\""
config *.quads[1].mobility.waypointFile "\"paths/voo_sensor2.waypoints\""
config *.quads[*].protocol.typename PythonDroneProtocol
config *.quads[0].app[*].startTime 1s
config *.quads[1].app[*].startTime 30s
config *.sensors[*].app[*].destAddresses "\"quads[0] quads[1]\""
config *.sensors[0..7].protocol.typename PythonSensorProtocol
config *.groundStation.app[*].destAddresses "\"quads[0] quads[1]\""
config *.groundStation.app[0].startTime 0s
config *.groundStation.protocol.typename PythonGroundProtocol
config network GradysNetwork
config description "Configure quads, ground stations and sensors for wifi only communication"
config *.quads[*].numApps 1
config *.quads[*].app[0].typename UdpCommunicationApp
config *.quads[*].app[0].localPort 1000
config *.quads[*].app[0].destPort 1000
config *.quads[*].app[0].sendInterval 1s
config *.quads[*].app[0].startTime 1s
config *.quads[*].app[0].stopTime -1s
config *.quads[*].app[0].messageLength 1454Byte
config *.quads[*].protocol.typename PythonDroneProtocol
config *.quads[*].mobility.typename PythonDroneMobility
config *.quads[*].mobility.coordinateSystemModule "\"coordinateSystem\""
config *.quads[*].mobility.waypointProximity 1m
config *.quads[*].mobility.speed 10mps
config *.quads[*].mobility.homeX 0
config *.quads[*].mobility.homeY 0
config *.quads[*].mobility.homeZ 0
config *.groundStation.numApps 1
config *.groundStation.app[0].typename UdpCommunicationApp
config *.groundStation.app[0].destPort 1000
config *.groundStation.app[0].localPort 1000
config *.groundStation.app[0].sendInterval 1s
config *.groundStation.app[0].messageLength 1454Byte
config *.groundStation.app[0].startTime 1s
config *.groundStation.protocol.typename PythonGroundProtocol
config *.groundStation.mobility.typename StationaryMobility
config *.groundStation.mobility.coordinateSystemModule "\"coordinateSystem\""
config *.groundStation.mobility.initialAltitude 0m
config *.groundStation.mobility.initialLatitude -15.840068deg
config *.groundStation.mobility.initialLongitude -47.926633deg
config *.numSensors 8
config *.sensors[*].numApps 1
config *.sensors[*].app[0].typename UdpCommunicationApp
config *.sensors[*].app[0].destPort 1000
config *.sensors[*].app[0].localPort 1000
config *.sensors[*].app[0].sendInterval 8s
config *.sensors[*].app[0].startTime exponential(1s)
config *.sensors[*].app[0].messageLength 1454Byte
config *.sensors[0..2].protocol.typename PythonSensorProtocol
config *.sensors[*].mobility.typename StationaryMobility
config *.sensors[*].mobility.coordinateSystemModule "\"coordinateSystem\""
config *.sensors[*].mobility.initialAltitude 0m
config *.sensors[0].mobility.initialLatitude -15.84245230deg
config *.sensors[0].mobility.initialLongitude -47.92948720deg
config *.sensors[1].mobility.initialLatitude -15.84262780deg
config *.sensors[1].mobility.initialLongitude -47.92650460deg
config *.sensors[2].mobility.initialLatitude -15.84161630deg
config *.sensors[2].mobility.initialLongitude -47.92395110deg
config *.sensors[3].mobility.initialLatitude -15.8436264deg
config *.sensors[3].mobility.initialLongitude -47.9270250deg
config *.sensors[4].mobility.initialLatitude -15.8406461deg
config *.sensors[4].mobility.initialLongitude -47.9240263deg
config *.sensors[5].mobility.initialLatitude -15.8416370deg
config *.sensors[5].mobility.initialLongitude -47.9227066deg
config *.sensors[6].mobility.initialLatitude -15.8437115deg
config *.sensors[6].mobility.initialLongitude -47.9259145deg
config *.sensors[7].mobility.initialLatitude -15.8437425deg
config *.sensors[7].mobility.initialLongitude -47.9246378deg
config description "Setup visualisation, scene origin, sensors"
config cmdenv-status-frequency 10s
config cmdenv-output-file results/0.out
config allow-object-stealing-on-deletion true
config *.visualizer.osgVisualizer.typename IntegratedOsgVisualizer
config *.visualizer.osgVisualizer.sceneVisualizer.typename SceneOsgEarthVisualizer
config *.visualizer.osgVisualizer.sceneVisualizer.mapFile "\"map.earth\""
config *.visualizer.*.sceneVisualizer.sceneImageSize 10000m
config *.visualizer.*.sceneVisualizer.sceneMinX -100000m
config *.visualizer.*.sceneVisualizer.sceneMinY -10000m
config *.visualizer.*.sceneVisualizer.sceneMinZ -10000m
config *.visualizer.*.sceneVisualizer.sceneMaxX 10000m
config *.visualizer.*.sceneVisualizer.sceneMaxY 10000m
config *.visualizer.*.sceneVisualizer.sceneMaxZ 10000m
config *.visualizer.*.physicalLinkVisualizer.lineShift 0
config *.visualizer.*.dataLinkVisualizer.lineShift 0
config *.visualizer.*.networkRouteVisualizer.lineShift 0
config *.visualizer.*.networkNodeVisualizer.displayModuleName true
config *.visualizer.*.statisticVisualizer.signalName "\"dataLoad\""
config *.visualizer.*.statisticVisualizer.format "\"(%v)\""
config *.visualizer.*.statisticVisualizer.textColor "\"red\""
config *.visualizer.*.statisticVisualizer.font "\"Courier New, 12px, bold\""
config *.visualizer.*.statisticVisualizer.opacity 1
config *.visualizer.*.mobilityVisualizer.displayMobility true
config *.visualizer.*.mobilityVisualizer.displayPositions true
config *.visualizer.*.mobilityVisualizer.displayOrientations true
config *.visualizer.*.mobilityVisualizer.displayVelocities true
config *.visualizer.*.mobilityVisualizer.displayMovementTrails true
config *.visualizer.*.mobilityVisualizer.animationSpeed 10
config *.environment.ground.typename FlatGround
config *.quads[*].osgModel "\"3d/drone.ive.10.scale.0,0,90.rot\""
config **.mobility.initFromDisplayString false
config *.coordinateSystem.sceneLongitude -47.926634deg
config *.coordinateSystem.sceneLatitude -15.840075deg
config *.coordinateSystem.sceneHeading 0deg
config *.*[*].mobility.constraintAreaMinX -10000m
config *.*[*].mobility.constraintAreaMinY -10000m
config *.*[*].mobility.constraintAreaMinZ -10000m
config *.*[*].mobility.constraintAreaMaxX 10000m
config *.*[*].mobility.constraintAreaMaxY 10000m
config *.*[*].mobility.constraintAreaMaxZ 10000m
config *.*[*].wlan[*].radio.displayCommunicationRange true
config *.*[*].wlan[0].radio.displayInterferenceRange false
config *.sensor*.wlan[0].radio.energyConsumer.typename SensorStateBasedEpEnergyConsumer
config *.sensor*.wlan[0].radio.energyConsumer.offPowerConsumption 0mW
config *.sensor*.wlan[0].radio.energyConsumer.sleepPowerConsumption 1mW
config *.sensor*.wlan[0].radio.energyConsumer.switchingPowerConsumption 1mW
config *.sensor*.wlan[0].radio.energyConsumer.receiverIdlePowerConsumption 2mW
config *.sensor*.wlan[0].radio.energyConsumer.receiverBusyPowerConsumption 5mW
config *.sensor*.wlan[0].radio.energyConsumer.receiverReceivingPowerConsumption 10mW
config *.sensor*.wlan[0].radio.energyConsumer.transmitterIdlePowerConsumption 2mW
config *.sensor*.wlan[0].radio.energyConsumer.transmitterTransmittingPowerConsumption 100mW
config *.sensor*.energyStorage.typename IdealEpEnergyStorage

vector 0 GradysNetwork.quads[0].wlan[0].mac.dcf frameSequenceActive:vector ETV
attr autoWarmupFilter false
attr interpolationmode sample-hold
attr recordingmode vector
attr source warmup(count(frameSequenceStarted)-count(frameSequenceFinished))
attr title "frame sequence active"
vector 1 GradysNetwork.quads[0].wlan[0].mac.dcf.channelAccess.inProgressFrames queueLength:vector ETV
attr autoWarmupFilter false
attr interpolationmode sample-hold
attr recordingmode vector
attr source "warmup(count(packetEnqueued) - count(packetDequeued))"
attr title "queue length"
vector 2 GradysNetwork.quads[0].wlan[0].mac.dcf.channelAccess.contention backoffActive:vector ETV
attr autoWarmupFilter false
attr interpolationmode sample-hold
attr recordingmode vector
attr source warmup(count(backoffStarted)-count(backoffStopped))
attr title "backoff active"
vector 3 GradysNetwork.quads[0].udp passedUpPk:vector(count) ETV
attr interpolationmode none
attr recordingmode vector(count)
attr source packetSentToUpper
attr title "packets passed up, count"
vector 4 GradysNetwork.quads[0].udp droppedPkWrongPort:vector(count) ETV
attr interpolationmode none
attr recordingmode vector(count)
attr source packetDropReasonIsNoPortFound(packetDropped)
attr title "packets dropped (wrong port), count"
vector 5 GradysNetwork.quads[0].udp droppedPkBadChecksum:vector(count) ETV
attr interpolationmode none
attr recordingmode vector(count)
attr source packetDropReasonIsIncorrectlyReceived(packetDropped)
attr title "packets dropped (checksum error), count"
vector 6 GradysNetwork.quads[1].wlan[0].mac.dcf frameSequenceActive:vector ETV
attr autoWarmupFilter false
attr interpolationmode sample-hold
attr recordingmode vector
attr source warmup(count(frameSequenceStarted)-count(frameSequenceFinished))
attr title "frame sequence active"
vector 7 GradysNetwork.quads[1].wlan[0].mac.dcf.channelAccess.inProgressFrames queueLength:vector ETV
attr autoWarmupFilter false
attr interpolationmode sample-hold
attr recordingmode vector
attr source "warmup(count(packetEnqueued) - count(packetDequeued))"
attr title "queue length"
vector 8 GradysNetwork.quads[1].wlan[0].mac.dcf.channelAccess.contention backoffActive:vector ETV
attr autoWarmupFilter false
attr interpolationmode sample-hold
attr recordingmode vector
attr source warmup(count(backoffStarted)-count(backoffStopped))
attr title "backoff active"
vector 9 GradysNetwork.quads[1].udp passedUpPk:vector(count) ETV
attr interpolationmode none
attr recordingmode vector(count)
attr source packetSentToUpper
attr title "packets passed up, count"
vector 10 GradysNetwork.quads[1].udp droppedPkWrongPort:vector(count) ETV
attr interpolationmode none
attr recordingmode vector(count)
attr source packetDropReasonIsNoPortFound(packetDropped)
attr title "packets dropped (wrong port), count"
vector 11 GradysNetwork.quads[1].udp droppedPkBadChecksum:vector(count) ETV
attr interpolationmode none
attr recordingmode vector(count)
attr source packetDropReasonIsIncorrectlyReceived(packetDropped)
attr title "packets dropped (checksum error), count"
vector 12 GradysNetwork.sensors[0].wlan[0].mac.dcf frameSequenceActive:vector ETV
attr autoWarmupFilter false
attr interpolationmode sample-hold
attr recordingmode vector
attr source warmup(count(frameSequenceStarted)-count(frameSequenceFinished))
attr title "frame sequence active"
vector 13 GradysNetwork.sensors[0].wlan[0].mac.dcf.channelAccess.inProgressFrames queueLength:vector ETV
attr autoWarmupFilter false
attr interpolationmode sample-hold
attr recordingmode vector
attr source "warmup(count(packetEnqueued) - count(packetDequeued))"
attr title "queue length"
vector 14 GradysNetwork.sensors[0].wlan[0].mac.dcf.channelAccess.contention backoffActive:vector ETV
attr autoWarmupFilter false
attr interpolationmode sample-hold
attr recordingmode vector
attr source warmup(count(backoffStarted)-count(backoffStopped))
attr title "backoff active"
vector 15 GradysNetwork.sensors[0].udp passedUpPk:vector(count) ETV
attr interpolationmode none
attr recordingmode vector(count)
attr source packetSentToUpper
attr title "packets passed up, count"
vector 16 GradysNetwork.sensors[0].udp droppedPkWrongPort:vector(count) ETV
attr interpolationmode none
attr recordingmode vector(count)
attr source packetDropReasonIsNoPortFound(packetDropped)
attr title "packets dropped (wrong port), count"
vector 17 GradysNetwork.sensors[0].udp droppedPkBadChecksum:vector(count) ETV
attr interpolationmode none
attr recordingmode vector(count)
attr source packetDropReasonIsIncorrectlyReceived(packetDropped)
attr title "packets dropped (checksum error), count"
vector 18 GradysNetwork.sensors[1].wlan[0].mac.dcf frameSequenceActive:vector ETV
attr autoWarmupFilter false
attr interpolationmode sample-hold
attr recordingmode vector
attr source warmup(count(frameSequenceStarted)-count(frameSequenceFinished))
attr title "frame sequence active"
vector 19 GradysNetwork.sensors[1].wlan[0].mac.dcf.channelAccess.inProgressFrames queueLength:vector ETV
attr autoWarmupFilter false
attr interpolationmode sample-hold
attr recordingmode vector
attr source "warmup(count(packetEnqueued) - count(packetDequeued))"
attr title "queue length"
vector 20 GradysNetwork.sensors[1].wlan[0].mac.dcf.channelAccess.contention backoffActive:vector ETV
attr autoWarmupFilter false
attr interpolationmode sample-hold
attr recordingmode vector
attr source warmup(count(backoffStarted)-count(backoffStopped))
attr title "backoff active"
vector 21 GradysNetwork.sensors[1].udp passedUpPk:vector(count) ETV
attr interpolationmode none
attr recordingmode vector(count)
attr source packetSentToUpper
attr title "packets passed up, count"
vector 22 GradysNetwork.sensors[1].udp droppedPkWrongPort:vector(count) ETV
attr interpolationmode none
attr recordingmode vector(count)
attr source packetDropReasonIsNoPortFound(packetDropped)
attr title "packets dropped (wrong port), count"
vector 23 GradysNetwork.sensors[1].udp droppedPkBadChecksum:vector(count) ETV
attr interpolationmode none
attr recordingmode vector(count)
attr source packetDropReasonIsIncorrectlyReceived(packetDropped)
attr title "packets dropped (checksum error), count"
vector 24 GradysNetwork.sensors[2].wlan[0].mac.dcf frameSequenceActive:vector ETV
attr autoWarmupFilter false
attr interpolationmode sample-hold
attr recordingmode vector
attr source warmup(count(frameSequenceStarted)-count(frameSequenceFinished))
attr title "frame sequence active"
vector 25 GradysNetwork.sensors[2].wlan[0].mac.dcf.channelAccess.inProgressFrames queueLength:vector ETV
attr autoWarmupFilter false
attr interpolationmode sample-hold
attr recordingmode vector
attr source "warmup(count(packetEnqueued) - count(packetDequeued))"
attr title "queue length"
vector 26 GradysNetwork.sensors[2].wlan[0].mac.dcf.channelAccess.contention backoffActive:vector ETV
attr autoWarmupFilter false
attr interpolationmode sample-hold
attr recordingmode vector
attr source warmup(count(backoffStarted)-count(backoffStopped))
attr title "backoff active"
vector 27 GradysNetwork.sensors[2].udp passedUpPk:vector(count) ETV
attr interpolationmode none
attr recordingmode vector(count)
attr source packetSentToUpper
attr title "packets passed up, count"
vector 28 GradysNetwork.sensors[2].udp droppedPkWrongPort:vector(count) ETV
attr interpolationmode none
attr recordingmode vector(count)
attr source packetDropReasonIsNoPortFound(packetDropped)
attr title "packets dropped (wrong port), count"
vector 29 GradysNetwork.sensors[2].udp droppedPkBadChecksum:vector(count) ETV
attr interpolationmode none
attr recordingmode vector(count)
attr source packetDropReasonIsIncorrectlyReceived(packetDropped)
attr title "packets dropped (checksum error), count"
vector 30 GradysNetwork.sensors[3].wlan[0].mac.dcf frameSequenceActive:vector ETV
attr autoWarmupFilter false
attr interpolationmode sample-hold
attr recordingmode vector
attr source warmup(count(frameSequenceStarted)-count(frameSequenceFinished))
attr title "frame sequence active"
vector 31 GradysNetwork.sensors[3].wlan[0].mac.dcf.channelAccess.inProgressFrames queueLength:vector ETV
attr autoWarmupFilter false
attr interpolationmode sample-hold
attr recordingmode vector
attr source "warmup(count(packetEnqueued) - count(packetDequeued))"
attr title "queue length"
vector 32 GradysNetwork.sensors[3].wlan[0].mac.dcf.channelAccess.contention backoffActive:vector ETV
attr autoWarmupFilter false
attr interpolationmode sample-hold
attr recordingmode vector
attr source warmup(count(backoffStarted)-count(backoffStopped))
attr title "backoff active"
vector 33 GradysNetwork.sensors[3].udp passedUpPk:vector(count) ETV
attr interpolationmode none
attr recordingmode vector(count)
attr source packetSentToUpper
attr title "packets passed up, count"
vector 34 GradysNetwork.sensors[3].udp droppedPkWrongPort:vector(count) ETV
attr interpolationmode none
attr recordingmode vector(count)
attr source packetDropReasonIsNoPortFound(packetDropped)
attr title "packets dropped (wrong port), count"
vector 35 GradysNetwork.sensors[3].udp droppedPkBadChecksum:vector(count) ETV
attr interpolationmode none
attr recordingmode vector(count)
attr source packetDropReasonIsIncorrectlyReceived(packetDropped)
attr title "packets dropped (checksum error), count"
vector 36 GradysNetwork.sensors[4].wlan[0].mac.dcf frameSequenceActive:vector ETV
attr autoWarmupFilter false
attr interpolationmode sample-hold
attr recordingmode vector
attr source warmup(count(frameSequenceStarted)-count(frameSequenceFinished))
attr title "frame sequence active"
vector 37 GradysNetwork.sensors[4].wlan[0].mac.dcf.channelAccess.inProgressFrames queueLength:vector ETV
attr autoWarmupFilter false
attr interpolationmode sample-hold
attr recordingmode vector
attr source "warmup(count(packetEnqueued) - count(packetDequeued))"
attr title "queue length"
vector 38 GradysNetwork.sensors[4].wlan[0].mac.dcf.channelAccess.contention backoffActive:vector ETV
attr autoWarmupFilter false
attr interpolationmode sample-hold
attr recordingmode vector
attr source warmup(count(backoffStarted)-count(backoffStopped))
attr title "backoff active"
vector 39 GradysNetwork.sensors[4].udp passedUpPk:vector(count) ETV
attr interpolationmode none
attr recordingmode vector(count)
attr source packetSentToUpper
attr title "packets passed up, count"
vector 40 GradysNetwork.sensors[4].udp droppedPkWrongPort:vector(count) ETV
attr interpolationmode none
attr recordingmode vector(count)
attr source packetDropReasonIsNoPortFound(packetDropped)
attr title "packets dropped (wrong port), count"
vector 41 GradysNetwork.sensors[4].udp droppedPkBadChecksum:vector(count) ETV
attr interpolationmode none
attr recordingmode vector(count)
attr source packetDropReasonIsIncorrectlyReceived(packetDropped)
attr title "packets dropped (checksum error), count"
vector 42 GradysNetwork.sensors[5].wlan[0].mac.dcf frameSequenceActive:vector ETV
attr autoWarmupFilter false
attr interpolationmode sample-hold
attr recordingmode vector
attr source warmup(count(frameSequenceStarted)-count(frameSequenceFinished))
attr title "frame sequence active"
vector 43 GradysNetwork.sensors[5].wlan[0].mac.dcf.channelAccess.inProgressFrames queueLength:vector ETV
attr autoWarmupFilter false
attr interpolationmode sample-hold
attr recordingmode vector
attr source "warmup(count(packetEnqueued) - count(packetDequeued))"
attr title "queue length"
vector 44 GradysNetwork.sensors[5].wlan[0].mac.dcf.channelAccess.contention backoffActive:vector ETV
attr autoWarmupFilter false
attr interpolationmode sample-hold
attr recordingmode vector
attr source warmup(count(backoffStarted)-count(backoffStopped))
attr title "backoff active"
vector 45 GradysNetwork.sensors[5].udp passedUpPk:vector(count) ETV
attr interpolationmode none
attr recordingmode vector(count)
attr source packetSentToUpper
attr title "packets passed up, count"
vector 46 GradysNetwork.sensors[5].udp droppedPkWrongPort:vector(count) ETV
attr interpolationmode none
attr recordingmode vector(count)
attr source packetDropReasonIsNoPortFound(packetDropped)
attr title "packets dropped (wrong port), count"
vector 47 GradysNetwork.sensors[5].udp droppedPkBadChecksum:vector(count) ETV
attr interpolationmode none
attr recordingmode vector(count)
attr source packetDropReasonIsIncorrectlyReceived(packetDropped)
attr title "packets dropped (checksum error), count"
vector 48 GradysNetwork.sensors[6].wlan[0].mac.dcf frameSequenceActive:vector ETV
attr autoWarmupFilter false
attr interpolationmode sample-hold
attr recordingmode vector
attr source warmup(count(frameSequenceStarted)-count(frameSequenceFinished))
attr title "frame sequence active"
vector 49 GradysNetwork.sensors[6].wlan[0].mac.dcf.channelAccess.inProgressFrames queueLength:vector ETV
attr autoWarmupFilter false
attr interpolationmode sample-hold
attr recordingmode vector
attr source "warmup(count(packetEnqueued) - count(packetDequeued))"
attr title "queue length"
vector 50 GradysNetwork.sensors[6].wlan[0].mac.dcf.channelAccess.contention backoffActive:vector ETV
attr autoWarmupFilter false
attr interpolationmode sample-hold
attr recordingmode vector
attr source warmup(count(backoffStarted)-count(backoffStopped))
attr title "backoff active"
vector 51 GradysNetwork.sensors[6].udp passedUpPk:vector(count) ETV
attr interpolationmode none
attr recordingmode vector(count)
attr source packetSentToUpper
attr title "packets passed up, count"
vector 52 GradysNetwork.sensors[6].udp droppedPkWrongPort:vector(count) ETV
attr interpolationmode none
attr recordingmode vector(count)
attr source packetDropReasonIsNoPortFound(packetDropped)
attr title "packets dropped (wrong port), count"
vector 53 GradysNetwork.sensors[6].udp droppedPkBadChecksum:vector(count) ETV
attr interpolationmode none
attr recordingmode vector(count)
attr source packetDropReasonIsIncorrectlyReceived(packetDropped)
attr title "packets dropped (checksum error), count"
vector 54 GradysNetwork.sensors[7].wlan[0].mac.dcf frameSequenceActive:vector ETV
attr autoWarmupFilter false
attr interpolationmode sample-hold
attr recordingmode vector
attr source warmup(count(frameSequenceStarted)-count(frameSequenceFinished))
attr title "frame sequence active"
vector 55 GradysNetwork.sensors[7].wlan[0].mac.dcf.channelAccess.inProgressFrames queueLength:vector ETV
attr autoWarmupFilter false
attr interpolationmode sample-hold
attr recordingmode vector
attr source "warmup(count(packetEnqueued) - count(packetDequeued))"
attr title "queue length"
vector 56 GradysNetwork.sensors[7].wlan[0].mac.dcf.channelAccess.contention backoffActive:vector ETV
attr autoWarmupFilter false
attr interpolationmode sample-hold
attr recordingmode vector
attr source warmup(count(backoffStarted)-count(backoffStopped))
attr title "backoff active"
vector 57 GradysNetwork.sensors[7].udp passedUpPk:vector(count) ETV
attr interpolationmode none
attr recordingmode vector(count)
attr source packetSentToUpper
attr title "packets passed up, count"
vector 58 GradysNetwork.sensors[7].udp droppedPkWrongPort:vector(count) ETV
attr interpolationmode none
attr recordingmode vector(count)
attr source packetDropReasonIsNoPortFound(packetDropped)
attr title "packets dropped (wrong port), count"
vector 59 GradysNetwork.sensors[7].udp droppedPkBadChecksum:vector(count) ETV
attr interpolationmode none
attr recordingmode vector(count)
attr source packetDropReasonIsIncorrectlyReceived(packetDropped)
attr title "packets dropped (checksum error), count"
vector 60 GradysNetwork.groundStation.wlan[0].mac.dcf frameSequenceActive:vector ETV
attr autoWarmupFilter false
attr interpolationmode sample-hold
attr recordingmode vector
attr source warmup(count(frameSequenceStarted)-count(frameSequenceFinished))
attr title "frame sequence active"
vector 61 GradysNetwork.groundStation.wlan[0].mac.dcf.channelAccess.inProgressFrames queueLength:vector ETV
attr autoWarmupFilter false
attr interpolationmode sample-hold
attr recordingmode vector
attr source "warmup(count(packetEnqueued) - count(packetDequeued))"
attr title "queue length"
vector 62 GradysNetwork.groundStation.wlan[0].mac.dcf.channelAccess.contention backoffActive:vector ETV
attr autoWarmupFilter false
attr interpolationmode sample-hold
attr recordingmode vector
attr source warmup(count(backoffStarted)-count(backoffStopped))
attr title "backoff active"
vector 63 GradysNetwork.groundStation.udp passedUpPk:vector(count) ETV
attr interpolationmode none
attr recordingmode vector(count)
attr source packetSentToUpper
attr title "packets passed up, count"
vector 64 GradysNetwork.groundStation.udp droppedPkWrongPort:vector(count) ETV
attr interpolationmode none
attr recordingmode vector(count)
attr source packetDropReasonIsNoPortFound(packetDropped)
attr title "packets dropped (wrong port), count"
vector 65 GradysNetwork.groundStation.udp droppedPkBadChecksum:vector(count) ETV
attr interpolationmode none
attr recordingmode vector(count)
attr source packetDropReasonIsIncorrectlyReceived(packetDropped)
attr title "packets dropped (checksum error), count"
vector 66 GradysNetwork.sensors[0].energyStorage powerConsumption:vector ETV
attr interpolationmode sample-hold
attr recordingmode vector
attr source powerConsumptionChanged
attr title "Power consumption"
attr unit W
vector 67 GradysNetwork.sensors[1].energyStorage powerConsumption:vector ETV
attr interpolationmode sample-hold
attr recordingmode vector
attr source powerConsumptionChanged
attr title "Power consumption"
attr unit W
vector 68 GradysNetwork.sensors[2].energyStorage powerConsumption:vector ETV
attr interpolationmode sample-hold
attr recordingmode vector
attr source powerConsumptionChanged
attr title "Power consumption"
attr unit W
vector 69 GradysNetwork.sensors[3].energyStorage powerConsumption:vector ETV
attr interpolationmode sample-hold
attr recordingmode vector
attr source powerConsumptionChanged
attr title "Power consumption"
attr unit W
vector 70 GradysNetwork.sensors[4].energyStorage powerConsumption:vector ETV
attr interpolationmode sample-hold
attr recordingmode vector
attr source powerConsumptionChanged
attr title "Power consumption"
attr unit W
vector 71 GradysNetwork.sensors[5].energyStorage powerConsumption:vector ETV
attr interpolationmode sample-hold
attr recordingmode vector
attr source powerConsumptionChanged
attr title "Power consumption"
attr unit W
vector 72 GradysNetwork.sensors[6].energyStorage powerConsumption:vector ETV
attr interpolationmode sample-hold
attr recordingmode vector
attr source powerConsumptionChanged
attr title "Power consumption"
attr unit W
vector 73 GradysNetwork.sensors[7].energyStorage powerConsumption:vector ETV
attr interpolationmode sample-hold
attr recordingmode vector
attr source powerConsumptionChanged
attr title "Power consumption"
attr unit W
vector 74 GradysNetwork.quads[0].wlan[0].radio radioMode:vector ETV
attr interpolationmode sample-hold
attr recordingmode vector
attr source radioModeChanged
attr title "Radio mode"
vector 75 GradysNetwork.quads[0].wlan[0].radio radioChannel:vector ETV
attr interpolationmode sample-hold
attr recordingmode vector
attr source radioChannelChanged
attr title "Radio channel"
vector 76 GradysNetwork.quads[1].wlan[0].radio radioMode:vector ETV
attr interpolationmode sample-hold
attr recordingmode vector
attr source radioModeChanged
attr title "Radio mode"
vector 77 GradysNetwork.quads[1].wlan[0].radio radioChannel:vector ETV
attr interpolationmode sample-hold
attr recordingmode vector
attr source radioChannelChanged
attr title "Radio channel"
vector 78 GradysNetwork.sensors[0].wlan[0].radio radioMode:vector ETV
attr interpolationmode sample-hold
attr recordingmode vector
attr source radioModeChanged
attr title "Radio mode"
vector 79 GradysNetwork.sensors[0].wlan[0].radio.energyConsumer powerConsumption:vector ETV
attr interpolationmode sample-hold
attr recordingmode vector
attr source powerConsumptionChanged
attr title "Power consumption"
attr unit W
vector 80 GradysNetwork.sensors[0].wlan[0].radio radioChannel:vector ETV
attr interpolationmode sample-hold
attr recordingmode vector
attr source radioChannelChanged
attr title "Radio channel"
vector 81 GradysNetwork.sensors[1].wlan[0].radio radioMode:vector ETV
attr interpolationmode sample-hold
attr recordingmode vector
attr source radioModeChanged
attr title "Radio mode"
vector 82 GradysNetwork.sensors[1].wlan[0].radio.energyConsumer powerConsumption:vector ETV
attr interpolationmode sample-hold
attr recordingmode vector
attr source powerConsumptionChanged
attr title "Power consumption"
attr unit W
vector 83 GradysNetwork.sensors[1].wlan[0].radio radioChannel:vector ETV
attr interpolationmode sample-hold
attr recordingmode vector
attr source radioChannelChanged
attr title "Radio channel"
vector 84 GradysNetwork.sensors[2].wlan[0].radio radioMode:vector ETV
attr interpolationmode sample-hold
attr recordingmode vector
attr source radioModeChanged
attr title "Radio mode"
vector 85 GradysNetwork.sensors[2].wlan[0].radio.energyConsumer powerConsumption:vector ETV
attr interpolationmode sample-hold
attr recordingmode vector
attr source powerConsumptionChanged
attr title "Power consumption"
attr unit W
vector 86 GradysNetwork.sensors[2].wlan[0].radio radioChannel:vector ETV
attr interpolationmode sample-hold
attr recordingmode vector
attr source radioChannelChanged
attr title "Radio channel"
vector 87 GradysNetwork.sensors[3].wlan[0].radio radioMode:vector ETV
attr interpolationmode sample-hold
attr recordingmode vector
attr source radioModeChanged
attr title "Radio mode"
vector 88 GradysNetwork.sensors[3].wlan[0].radio.energyConsumer powerConsumption:vector ETV
attr interpolationmode sample-hold
attr recordingmode vector
attr source powerConsumptionChanged
attr title "Power consumption"
attr unit W
vector 89 GradysNetwork.sensors[3].wlan[0].radio radioChannel:vector ETV
attr interpolationmode sample-hold
attr recordingmode vector
attr source radioChannelChanged
attr title "Radio channel"
vector 90 GradysNetwork.sensors[4].wlan[0].radio radioMode:vector ETV
attr interpolationmode sample-hold
attr recordingmode vector
attr source radioModeChanged
attr title "Radio mode"
vector 91 GradysNetwork.sensors[4].wlan[0].radio.energyConsumer powerConsumption:vector ETV
attr interpolationmode sample-hold
attr recordingmode vector
attr source powerConsumptionChanged
attr title "Power consumption"
attr unit W
vector 92 GradysNetwork.sensors[4].wlan[0].radio radioChannel:vector ETV
attr interpolationmode sample-hold
attr recordingmode vector
attr source radioChannelChanged
attr title "Radio channel"
vector 93 GradysNetwork.sensors[5].wlan[0].radio radioMode:vector ETV
attr interpolationmode sample-hold
attr recordingmode vector
attr source radioModeChanged
attr title "Radio mode"
vector 94 GradysNetwork.sensors[5].wlan[0].radio.energyConsumer powerConsumption:vector ETV
attr interpolationmode sample-hold
attr recordingmode vector
attr source powerConsumptionChanged
attr title "Power consumption"
attr unit W
vector 95 GradysNetwork.sensors[5].wlan[0].radio radioChannel:vector ETV
attr interpolationmode sample-hold
attr recordingmode vector
attr source radioChannelChanged
attr title "Radio channel"
vector 96 GradysNetwork.sensors[6].wlan[0].radio radioMode:vector ETV
attr interpolationmode sample-hold
attr recordingmode vector
attr source radioModeChanged
attr title "Radio mode"
vector 97 GradysNetwork.sensors[6].wlan[0].radio.energyConsumer powerConsumption:vector ETV
attr interpolationmode sample-hold
attr recordingmode vector
attr source powerConsumptionChanged
attr title "Power consumption"
attr unit W
vector 98 GradysNetwork.sensors[6].wlan[0].radio radioChannel:vector ETV
attr interpolationmode sample-hold
attr recordingmode vector
attr source radioChannelChanged
attr title "Radio channel"
vector 99 GradysNetwork.sensors[7].wlan[0].radio radioMode:vector ETV
attr interpolationmode sample-hold
attr recordingmode vector
attr source radioModeChanged
attr title "Radio mode"
vector 100 GradysNetwork.sensors[7].wlan[0].radio.energyConsumer powerConsumption:vector ETV
attr interpolationmode sample-hold
attr recordingmode vector
attr source powerConsumptionChanged
attr title "Power consumption"
attr unit W
vector 101 GradysNetwork.sensors[7].wlan[0].radio radioChannel:vector ETV
attr interpolationmode sample-hold
attr recordingmode vector
attr source radioChannelChanged
attr title "Radio channel"
vector 102 GradysNetwork.groundStation.wlan[0].radio radioMode:vector ETV
attr interpolationmode sample-hold
attr recordingmode vector
attr source radioModeChanged
attr title "Radio mode"
vector 103 GradysNetwork.groundStation.wlan[0].radio radioChannel:vector ETV
attr interpolationmode sample-hold
attr recordingmode vector
attr source radioChannelChanged
attr title "Radio channel"
vector 104 GradysNetwork.quads[0].wlan[0].radio receptionState:vector ETV
attr interpolationmode sample-hold
attr recordingmode vector
attr source receptionStateChanged
attr title "Radio reception state"
vector 105 GradysNetwork.quads[0].wlan[0].mac.dcf.channelAccess.contention stateChanged:vector ETV
attr enum IDLE,DEFER,IFS_AND_BACKOFF
attr interpolationmode none
attr recordingmode vector
attr title "contention state changed"
attr type enum
vector 106 GradysNetwork.quads[1].wlan[0].radio receptionState:vector ETV
attr interpolationmode sample-hold
attr recordingmode vector
attr source receptionStateChanged
attr title "Radio reception state"
vector 107 GradysNetwork.quads[1].wlan[0].mac.dcf.channelAccess.contention stateChanged:vector ETV
attr enum IDLE,DEFER,IFS_AND_BACKOFF
attr interpolationmode none
attr recordingmode vector
attr title "contention state changed"
attr type enum
vector 108 GradysNetwork.sensors[0].wlan[0].radio receptionState:vector ETV
attr interpolationmode sample-hold
attr recordingmode vector
attr source receptionStateChanged
attr title "Radio reception state"
vector 109 GradysNetwork.sensors[0].wlan[0].mac.dcf.channelAccess.contention stateChanged:vector ETV
attr enum IDLE,DEFER,IFS_AND_BACKOFF
attr interpolationmode none
attr recordingmode vector
attr title "contention state changed"
attr type enum
vector 110 GradysNetwork.sensors[1].wlan[0].radio receptionState:vector ETV
attr interpolationmode sample-hold
attr recordingmode vector
attr source receptionStateChanged
attr title "Radio reception state"
vector 111 GradysNetwork.sensors[1].wlan[0].mac.dcf.channelAccess.contention stateChanged:vector ETV
attr enum IDLE,DEFER,IFS_AND_BACKOFF
attr interpolationmode none
attr recordingmode vector
attr title "contention state changed"
attr type enum
vector 112 GradysNetwork.sensors[2].wlan[0].radio receptionState:vector ETV
attr interpolationmode sample-hold
attr recordingmode vector
attr source receptionStateChanged
attr title "Radio reception state"
vector 113 GradysNetwork.sensors[2].wlan[0].mac.dcf.channelAccess.contention stateChanged:vector ETV
attr enum IDLE,DEFER,IFS_AND_BACKOFF
attr interpolationmode none
attr recordingmode vector
attr title "contention state changed"
attr type enum
vector 114 GradysNetwork.sensors[3].wlan[0].radio receptionState:vector ETV
attr interpolationmode sample-hold
attr recordingmode vector
attr source receptionStateChanged
attr title "Radio reception state"
vector 115 GradysNetwork.sensors[3].wlan[0].mac.dcf.channelAccess.contention stateChanged:vector ETV
attr enum IDLE,DEFER,IFS_AND_BACKOFF
attr interpolationmode none
attr recordingmode vector
attr title "contention state changed"
attr type enum
vector 116 GradysNetwork.sensors[4].wlan[0].radio receptionState:vector ETV
attr interpolationmode sample-hold
attr recordingmode vector
attr source receptionStateChanged
attr title "Radio reception state"
vector 117 GradysNetwork.sensors[4].wlan[0].mac.dcf.channelAccess.contention stateChanged:vector ETV
attr enum IDLE,DEFER,IFS_AND_BACKOFF
attr interpolationmode none
attr recordingmode vector
attr title "contention state changed"
attr type enum
vector 118 GradysNetwork.sensors[5].wlan[0].radio receptionState:vector ETV
attr interpolationmode sample-hold
attr recordingmode vector
attr source receptionStateChanged
attr title "Radio reception state"
vector 119 GradysNetwork.sensors[5].wlan[0].mac.dcf.channelAccess.contention stateChanged:vector ETV
attr enum IDLE,DEFER,IFS_AND_BACKOFF
attr interpolationmode none
attr recordingmode vector
attr title "contention state changed"
attr type enum
vector 120 GradysNetwork.sensors[6].wlan[0].radio receptionState:vector ETV
attr interpolationmode sample-hold
attr recordingmode vector
attr source receptionStateChanged
attr title "Radio reception state"
vector 121 GradysNetwork.sensors[6].wlan[0].mac.dcf.channelAccess.contention stateChanged:vector ETV
attr enum IDLE,DEFER,IFS_AND_BACKOFF
attr interpolationmode none
attr recordingmode vector
attr title "contention state changed"
attr type enum
vector 122 GradysNetwork.sensors[7].wlan[0].radio receptionState:vector ETV
attr interpolationmode sample-hold
attr recordingmode vector
attr source receptionStateChanged
attr title "Radio reception state"
vector 123 GradysNetwork.sensors[7].wlan[0].mac.dcf.channelAccess.contention stateChanged:vector ETV
attr enum IDLE,DEFER,IFS_AND_BACKOFF
attr interpolationmode none
attr recordingmode vector
attr title "contention state changed"
attr type enum
vector 124 GradysNetwork.groundStation.wlan[0].radio receptionState:vector ETV
attr interpolationmode sample-hold
attr recordingmode vector
attr source receptionStateChanged
attr title "Radio reception state"
vector 125 GradysNetwork.groundStation.wlan[0].mac.dcf.channelAccess.contention stateChanged:vector ETV
attr enum IDLE,DEFER,IFS_AND_BACKOFF
attr interpolationmode none
attr recordingmode vector
attr title "contention state changed"
attr type enum
vector 126 GradysNetwork.quads[0].wlan[0].mac.dcf.recoveryProcedure contentionWindowChanged:vector ETV
attr interpolationmode sample-hold
attr recordingmode vector
attr title "contention window"
vector 127 GradysNetwork.quads[1].wlan[0].mac.dcf.recoveryProcedure contentionWindowChanged:vector ETV
attr interpolationmode sample-hold
attr recordingmode vector
attr title "contention window"
vector 128 GradysNetwork.sensors[0].wlan[0].mac.dcf.recoveryProcedure contentionWindowChanged:vector ETV
attr interpolationmode sample-hold
attr recordingmode vector
attr title "contention window"
vector 129 GradysNetwork.sensors[1].wlan[0].mac.dcf.recoveryProcedure contentionWindowChanged:vector ETV
attr interpolationmode sample-hold
attr recordingmode vector
attr title "contention window"
vector 130 GradysNetwork.sensors[2].wlan[0].mac.dcf.recoveryProcedure contentionWindowChanged:vector ETV
attr interpolationmode sample-hold
attr recordingmode vector
attr title "contention window"
vector 131 GradysNetwork.sensors[3].wlan[0].mac.dcf.recoveryProcedure contentionWindowChanged:vector ETV
attr interpolationmode sample-hold
attr recordingmode vector
attr title "contention window"
vector 132 GradysNetwork.sensors[4].wlan[0].mac.dcf.recoveryProcedure contentionWindowChanged:vector ETV
attr interpolationmode sample-hold
attr recordingmode vector
attr title "contention window"
vector 133 GradysNetwork.sensors[5].wlan[0].mac.dcf.recoveryProcedure contentionWindowChanged:vector ETV
attr interpolationmode sample-hold
attr recordingmode vector
attr title "contention window"
vector 134 GradysNetwork.sensors[6].wlan[0].mac.dcf.recoveryProcedure contentionWindowChanged:vector ETV
attr interpolationmode sample-hold
attr recordingmode vector
attr title "contention window"
vector 135 GradysNetwork.sensors[7].wlan[0].mac.dcf.recoveryProcedure contentionWindowChanged:vector ETV
attr interpolationmode sample-hold
attr recordingmode vector
attr title "contention window"
vector 136 GradysNetwork.groundStation.wlan[0].mac.dcf.recoveryProcedure contentionWindowChanged:vector ETV
attr interpolationmode sample-hold
attr recordingmode vector
attr title "contention window"
vector 137 GradysNetwork.quads[0].app[0] packetSent:vector(packetBytes) ETV
attr interpolationmode none
attr recordingmode vector(packetBytes)
attr source packetSent
attr title "packets sent, packetBytes"
vector 138 GradysNetwork.quads[0].udp packetSent:vector(packetBytes) ETV
attr interpolationmode none
attr recordingmode vector(packetBytes)
attr source packetSent
attr title "packets sent, packetBytes"
vector 139 GradysNetwork.quads[0].lo[0].lo rcvdPkFromHl:vector(packetBytes) ETV
attr interpolationmode none
attr recordingmode vector(packetBytes)
attr source packetReceivedFromUpper
attr title "packets received from higher layer, packetBytes"
vector 140 GradysNetwork.quads[0].lo[0].lo passedUpPk:vector(packetBytes) ETV
attr interpolationmode none
attr recordingmode vector(packetBytes)
attr source packetSentToUpper
attr title "packets passed to higher layer, packetBytes"
vector 141 GradysNetwork.quads[0].wlan[0].mac packetReceivedFromUpper:vector(packetBytes) ETV
attr interpolationmode none
attr recordingmode vector(packetBytes)
attr title "packets received from upper layer, packetBytes"
vector 142 GradysNetwork.quads[0].wlan[0].mac.dcf.channelAccess.pendingQueue incomingPacketLengths:vector ETV
attr interpolationmode none
attr recordingmode vector
attr source packetLength(packetPushStarted)
attr title "incoming packet lengths"
attr unit b
vector 143 GradysNetwork.quads[0].wlan[0].mac.dcf.channelAccess.pendingQueue incomingDataRate:vector ETV
attr interpolationmode linear
attr recordingmode vector
attr source throughput(packetPushStarted)
attr title "incoming datarate"
attr unit bps
vector 144 GradysNetwork.quads[0].wlan[0].mac.dcf.channelAccess.pendingQueue queueLength:vector ETV
attr autoWarmupFilter false
attr interpolationmode sample-hold
attr recordingmode vector
attr source "warmup(atomic(constant0(packetPushEnded) + count(packetPushStarted) - count(packetPulled) - count(packetRemoved) - count(packetDropped)))"
attr title "queue length"
attr unit pk
vector 145 GradysNetwork.quads[0].wlan[0].mac.dcf.channelAccess.pendingQueue queueBitLength:vector ETV
attr autoWarmupFilter false
attr interpolationmode sample-hold
attr recordingmode vector
attr source "warmup(atomic(constant0(packetPushEnded) + sum(packetLength(packetPushStarted)) - sum(packetLength(packetPulled)) - sum(packetLength(packetRemoved)) - sum(packetLength(packetDropped))))"
attr title "queue bit length"
attr unit b
vector 146 GradysNetwork.quads[0].wlan[0].mac.dcf.channelAccess.contention backoffPeriodGenerated:vector ETV
attr interpolationmode none
attr recordingmode vector
attr title "backoff periods"
vector 147 GradysNetwork.quads[0].udp packetReceived:vector(packetBytes) ETV
attr interpolationmode none
attr recordingmode vector(packetBytes)
attr source packetReceived
attr title "packets received, packetBytes"
vector 148 GradysNetwork.quads[0].wlan[0].mac.dcf.channelAccess.pendingQueue queueingTime:vector ETV
attr interpolationmode none
attr recordingmode vector
attr source queueingTime(packetPulled)
attr title "queueing times"
attr unit s
vector 149 GradysNetwork.quads[0].wlan[0].mac.dcf.channelAccess.pendingQueue outgoingPacketLengths:vector ETV
attr interpolationmode none
attr recordingmode vector
attr source packetLength(packetPulled)
attr title "outgoing packet lengths"
attr unit b
vector 150 GradysNetwork.quads[0].wlan[0].mac.dcf.channelAccess.pendingQueue outgoingDataRate:vector ETV
attr interpolationmode linear
attr recordingmode vector
attr source throughput(packetPulled)
attr title "outgoing datarate"
attr unit bps
vector 151 GradysNetwork.quads[0].wlan[0].mac.dcf datarateSelected:vector ETV
attr interpolationmode none
attr recordingmode vector
attr title "datarates selected"
vector 152 GradysNetwork.quads[0].wlan[0].mac packetSentToLower:vector(packetBytes) ETV
attr interpolationmode none
attr recordingmode vector(packetBytes)
attr title "packets sent to lower layer, packetBytes"
vector 153 GradysNetwork.quads[0].wlan[0].radio transmissionState:vector ETV
attr interpolationmode sample-hold
attr recordingmode vector
attr source transmissionStateChanged
attr title "Radio transmission state"
vector 154 GradysNetwork.quads[0].wlan[0].mac.dcf packetSentToPeer:vector(packetBytes) ETV
attr interpolationmode none
attr recordingmode vector(packetBytes)
attr title "packets sent, packetBytes"
vector 155 GradysNetwork.quads[0].wlan[0].mac.dcf packetSentToPeerMulticast:vector(packetBytes) ETV
attr interpolationmode none
attr recordingmode vector(packetBytes)
attr source ieee80211Multicast(packetSentToPeer)
attr title "packets sent: multicast, packetBytes"
vector 156 GradysNetwork.quads[0].wlan[0].mac.dcf packetSentToPeerWithoutRetry:vector(packetBytes) ETV
attr interpolationmode none
attr recordingmode vector(packetBytes)
attr source ieee80211NotRetry(packetSentToPeer)
attr title "packets sent: without retry, packetBytes"
vector 157 GradysNetwork.quads[0].wlan[0].mac.dcf.channelAccess.inProgressFrames queueingTime:vector ETV
attr interpolationmode none
attr recordingmode vector
attr source queueingTime(packetDequeued)
attr title "queueing times"
vector 158 GradysNetwork.quads[1].wlan[0].mac packetReceivedFromLower:vector(packetBytes) ETV
attr interpolationmode none
attr recordingmode vector(packetBytes)
attr title "packets received from lower layer, packetBytes"
vector 159 GradysNetwork.quads[1].wlan[0].mac.dcf packetReceivedFromPeer:vector(packetBytes) ETV
attr interpolationmode none
attr recordingmode vector(packetBytes)
attr title "packets received, packetBytes"
vector 160 GradysNetwork.quads[1].wlan[0].mac.dcf packetReceivedFromPeerMulticast:vector(packetBytes) ETV
attr interpolationmode none
attr recordingmode vector(packetBytes)
attr source ieee80211Multicast(packetReceivedFromPeer)
attr title "packets received: multicast, packetBytes"
vector 161 GradysNetwork.quads[1].wlan[0].mac.dcf packetReceivedFromPeerWithoutRetry:vector(packetBytes) ETV
attr interpolationmode none
attr recordingmode vector(packetBytes)
attr source ieee80211NotRetry(packetReceivedFromPeer)
attr title "packets received: without retry, packetBytes"
vector 162 GradysNetwork.quads[1].wlan[0].mac packetSentToUpper:vector(packetBytes) ETV
attr interpolationmode none
attr recordingmode vector(packetBytes)
attr title "packets sent to upper layer, packetBytes"
vector 163 GradysNetwork.groundStation.wlan[0].mac packetReceivedFromLower:vector(packetBytes) ETV
attr interpolationmode none
attr recordingmode vector(packetBytes)
attr title "packets received from lower layer, packetBytes"
vector 164 GradysNetwork.groundStation.wlan[0].mac.dcf packetReceivedFromPeer:vector(packetBytes) ETV
attr interpolationmode none
attr recordingmode vector(packetBytes)
attr title "packets received, packetBytes"
vector 165 GradysNetwork.groundStation.wlan[0].mac.dcf packetReceivedFromPeerMulticast:vector(packetBytes) ETV
attr interpolationmode none
attr recordingmode vector(packetBytes)
attr source ieee80211Multicast(packetReceivedFromPeer)
attr title "packets received: multicast, packetBytes"
vector 166 GradysNetwork.groundStation.wlan[0].mac.dcf packetReceivedFromPeerWithoutRetry:vector(packetBytes) ETV
attr interpolationmode none
attr recordingmode vector(packetBytes)
attr source ieee80211NotRetry(packetReceivedFromPeer)
attr title "packets received: without retry, packetBytes"
vector 167 GradysNetwork.groundStation.wlan[0].mac packetSentToUpper:vector(packetBytes) ETV
attr interpolationmode none
attr recordingmode vector(packetBytes)
attr title "packets sent to upper layer, packetBytes"
vector 168 GradysNetwork.groundStation.udp packetReceived:vector(packetBytes) ETV
attr interpolationmode none
attr recordingmode vector(packetBytes)
attr source packetReceived
attr title "packets received, packetBytes"
vector 169 GradysNetwork.groundStation.app[0] packetReceived:vector(packetBytes) ETV
attr interpolationmode none
attr recordingmode vector(packetBytes)
attr source packetReceived
attr title "packets received, packetBytes"
vector 170 GradysNetwork.groundStation.app[0] throughput:vector ETV
attr recordingmode vector
attr source throughput(packetReceived)
attr title throughput
attr unit bps
vector 171 GradysNetwork.groundStation.app[0] rcvdPkLifetime:vector ETV
attr interpolationmode none
attr recordingmode vector
attr source dataAge(packetReceived)
attr title "received packet lifetime"
attr unit s
vector 172 GradysNetwork.groundStation.app[0] packetSent:vector(packetBytes) ETV
attr interpolationmode none
attr recordingmode vector(packetBytes)
attr source packetSent
attr title "packets sent, packetBytes"
vector 173 GradysNetwork.groundStation.udp packetSent:vector(packetBytes) ETV
attr interpolationmode none
attr recordingmode vector(packetBytes)
attr source packetSent
attr title "packets sent, packetBytes"
vector 174 GradysNetwork.groundStation.ipv4.arp arpRequestSent:vector(packetBytes) ETV
attr recordingmode vector(packetBytes)
attr source arpRequestSent
attr title "ARP request sent, packetBytes"
vector 175 GradysNetwork.groundStation.wlan[0].mac packetReceivedFromUpper:vector(packetBytes) ETV
attr interpolationmode none
attr recordingmode vector(packetBytes)
attr title "packets received from upper layer, packetBytes"
vector 176 GradysNetwork.groundStation.wlan[0].mac.dcf.channelAccess.pendingQueue incomingPacketLengths:vector ETV
attr interpolationmode none
attr recordingmode vector
attr source packetLength(packetPushStarted)
attr title "incoming packet lengths"
attr unit b
vector 177 GradysNetwork.groundStation.wlan[0].mac.dcf.channelAccess.pendingQueue incomingDataRate:vector ETV
attr interpolationmode linear
attr recordingmode vector
attr source throughput(packetPushStarted)
attr title "incoming datarate"
attr unit bps
vector 178 GradysNetwork.groundStation.wlan[0].mac.dcf.channelAccess.pendingQueue queueLength:vector ETV
attr autoWarmupFilter false
attr interpolationmode sample-hold
attr recordingmode vector
attr source "warmup(atomic(constant0(packetPushEnded) + count(packetPushStarted) - count(packetPulled) - count(packetRemoved) - count(packetDropped)))"
attr title "queue length"
attr unit pk
vector 179 GradysNetwork.groundStation.wlan[0].mac.dcf.channelAccess.pendingQueue queueBitLength:vector ETV
attr autoWarmupFilter false
attr interpolationmode sample-hold
attr recordingmode vector
attr source "warmup(atomic(constant0(packetPushEnded) + sum(packetLength(packetPushStarted)) - sum(packetLength(packetPulled)) - sum(packetLength(packetRemoved)) - sum(packetLength(packetDropped))))"
attr title "queue bit length"
attr unit b
vector 180 GradysNetwork.groundStation.wlan[0].mac.dcf.channelAccess.contention backoffPeriodGenerated:vector ETV
attr interpolationmode none
attr recordingmode vector
attr title "backoff periods"
vector 181 GradysNetwork.groundStation.wlan[0].mac.dcf.channelAccess.pendingQueue queueingTime:vector ETV
attr interpolationmode none
attr recordingmode vector
attr source queueingTime(packetPulled)
attr title "queueing times"
attr unit s
vector 182 GradysNetwork.groundStation.wlan[0].mac.dcf.channelAccess.pendingQueue outgoingPacketLengths:vector ETV
attr interpolationmode none
attr recordingmode vector
attr source packetLength(packetPulled)
attr title "outgoing packet lengths"
attr unit b
vector 183 GradysNetwork.groundStation.wlan[0].mac.dcf.channelAccess.pendingQueue outgoingDataRate:vector ETV
attr interpolationmode linear
attr recordingmode vector
attr source throughput(packetPulled)
attr title "outgoing datarate"
attr unit bps
vector 184 GradysNetwork.groundStation.wlan[0].mac.dcf datarateSelected:vector ETV
attr interpolationmode none
attr recordingmode vector
attr title "datarates selected"
vector 185 GradysNetwork.groundStation.wlan[0].mac packetSentToLower:vector(packetBytes) ETV
attr interpolationmode none
attr recordingmode vector(packetBytes)
attr title "packets sent to lower layer, packetBytes"
vector 186 GradysNetwork.groundStation.wlan[0].radio transmissionState:vector ETV
attr interpolationmode sample-hold
attr recordingmode vector
attr source transmissionStateChanged
attr title "Radio transmission state"
vector 187 GradysNetwork.groundStation.wlan[0].mac.dcf packetSentToPeer:vector(packetBytes) ETV
attr interpolationmode none
attr recordingmode vector(packetBytes)
attr title "packets sent, packetBytes"
vector 188 GradysNetwork.groundStation.wlan[0].mac.dcf packetSentToPeerMulticast:vector(packetBytes) ETV
attr interpolationmode none
attr recordingmode vector(packetBytes)
attr source ieee80211Multicast(packetSentToPeer)
attr title "packets sent: multicast, packetBytes"
vector 189 GradysNetwork.groundStation.wlan[0].mac.dcf packetSentToPeerBroadcast:vector(packetBytes) ETV
attr interpolationmode none
attr recordingmode vector(packetBytes)
attr source ieee80211Broadcast(packetSentToPeer)
attr title "packets sent: broadcast , packetBytes"
vector 190 GradysNetwork.groundStation.wlan[0].mac.dcf packetSentToPeerWithoutRetry:vector(packetBytes) ETV
attr interpolationmode none
attr recordingmode vector(packetBytes)
attr source ieee80211NotRetry(packetSentToPeer)
attr title "packets sent: without retry, packetBytes"
vector 191 GradysNetwork.groundStation.wlan[0].mac.dcf.channelAccess.inProgressFrames queueingTime:vector ETV
attr interpolationmode none
attr recordingmode vector
attr source queueingTime(packetDequeued)
attr title "queueing times"
vector 192 GradysNetwork.quads[0].wlan[0].mac packetReceivedFromLower:vector(packetBytes) ETV
attr interpolationmode none
attr recordingmode vector(packetBytes)
attr title "packets received from lower layer, packetBytes"
vector 193 GradysNetwork.quads[0].wlan[0].mac.dcf packetReceivedFromPeer:vector(packetBytes) ETV
attr interpolationmode none
attr recordingmode vector(packetBytes)
attr title "packets received, packetBytes"
vector 194 GradysNetwork.quads[0].wlan[0].mac.dcf packetReceivedFromPeerMulticast:vector(packetBytes) ETV
attr interpolationmode none
attr recordingmode vector(packetBytes)
attr source ieee80211Multicast(packetReceivedFromPeer)
attr title "packets received: multicast, packetBytes"
vector 195 GradysNetwork.quads[0].wlan[0].mac.dcf packetReceivedFromPeerBroadcast:vector(packetBytes) ETV
attr interpolationmode none
attr recordingmode vector(packetBytes)
attr source ieee80211Broadcast(packetReceivedFromPeer)
attr title "packets received: broadcast, packetBytes"
vector 196 GradysNetwork.quads[0].wlan[0].mac.dcf packetReceivedFromPeerWithoutRetry:vector(packetBytes) ETV
attr interpolationmode none
attr recordingmode vector(packetBytes)
attr source ieee80211NotRetry(packetReceivedFromPeer)
attr title "packets received: without retry, packetBytes"
vector 197 GradysNetwork.quads[0].wlan[0].mac packetSentToUpper:vector(packetBytes) ETV
attr interpolationmode none
attr recordingmode vector(packetBytes)
attr title "packets sent to upper layer, packetBytes"
vector 198 GradysNetwork.quads[1].wlan[0].mac.dcf packetReceivedFromPeerBroadcast:vector(packetBytes) ETV
attr interpolationmode none
attr recordingmode vector(packetBytes)
attr source ieee80211Broadcast(packetReceivedFromPeer)
attr title "packets received: broadcast, packetBytes"
vector 199 GradysNetwork.quads[0].ipv4.arp arpReplySent:vector(packetBytes) ETV
attr recordingmode vector(packetBytes)
attr source arpReplySent
attr title "ARP replies sent, packetBytes"
vector 200 GradysNetwork.quads[0].wlan[0].mac.dcf packetSentToPeerUnicast:vector(packetBytes) ETV
attr interpolationmode none
attr recordingmode vector(packetBytes)
attr source ieee80211Unicast(packetSentToPeer)
attr title "packets sent: unicast, packetBytes"
vector 201 GradysNetwork.quads[0].wlan[0].mac.rx nav:vector ETV
attr interpolationmode linear
attr recordingmode vector
attr source navChanged
attr title "network allocation vector"
vector 202 GradysNetwork.quads[1].wlan[0].mac.rx nav:vector ETV
attr interpolationmode linear
attr recordingmode vector
attr source navChanged
attr title "network allocation vector"
vector 203 GradysNetwork.quads[1].wlan[0].mac.dcf packetDrop:vector(packetBytes) ETV
attr interpolationmode none
attr recordingmode vector(packetBytes)
attr source packetDropped
attr title "packet drops, packetBytes"
vector 204 GradysNetwork.quads[1].wlan[0].mac.dcf packetDropNotAddressedToUs:vector(packetBytes) ETV
attr interpolationmode none
attr recordingmode vector(packetBytes)
attr source packetDropReasonIsNotAddressedToUs(packetDropped)
attr title "packet drops: not addressed to us, packetBytes"
vector 205 GradysNetwork.quads[1].wlan[0].mac packetDrop:vector(packetBytes) ETV
attr interpolationmode none
attr recordingmode vector(packetBytes)
attr source packetDropped
attr title "packet drops, packetBytes"
vector 206 GradysNetwork.quads[1].wlan[0].mac packetDropNotAddressedToUs:vector(packetBytes) ETV
attr interpolationmode none
attr recordingmode vector(packetBytes)
attr source packetDropReasonIsNotAddressedToUs(packetDropped)
attr title "packet drops: not addressed to us, packetBytes"
vector 207 GradysNetwork.groundStation.wlan[0].mac.dcf packetReceivedFromPeerUnicast:vector(packetBytes) ETV
attr interpolationmode none
attr recordingmode vector(packetBytes)
attr source ieee80211Unicast(packetReceivedFromPeer)
attr title "packets received: unicast, packetBytes"
vector 208 GradysNetwork.groundStation.wlan[0].mac.dcf packetSentToPeerUnicast:vector(packetBytes) ETV
attr interpolationmode none
attr recordingmode vector(packetBytes)
attr source ieee80211Unicast(packetSentToPeer)
attr title "packets sent: unicast, packetBytes"
vector 209 GradysNetwork.quads[0].wlan[0].mac.dcf packetReceivedFromPeerUnicast:vector(packetBytes) ETV
attr interpolationmode none
attr recordingmode vector(packetBytes)
attr source ieee80211Unicast(packetReceivedFromPeer)
attr title "packets received: unicast, packetBytes"
vector 210 GradysNetwork.groundStation.wlan[0].mac.rx nav:vector ETV
attr interpolationmode linear
attr recordingmode vector
attr source navChanged
attr title "network allocation vector"
vector 211 GradysNetwork.quads[0].app[0] packetReceived:vector(packetBytes) ETV
attr interpolationmode none
attr recordingmode vector(packetBytes)
attr source packetReceived
attr title "packets received, packetBytes"
vector 212 GradysNetwork.quads[0].app[0] throughput:vector ETV
attr recordingmode vector
attr source throughput(packetReceived)
attr title throughput
attr unit bps
vector 213 GradysNetwork.quads[0].app[0] rcvdPkLifetime:vector ETV
attr interpolationmode none
attr recordingmode vector
attr source dataAge(packetReceived)
attr title "received packet lifetime"
attr unit s
vector 214 GradysNetwork.quads[1].app[0] packetSent:vector(packetBytes) ETV
attr interpolationmode none
attr recordingmode vector(packetBytes)
attr source packetSent
attr title "packets sent, packetBytes"
vector 215 GradysNetwork.quads[1].udp packetSent:vector(packetBytes) ETV
attr interpolationmode none
attr recordingmode vector(packetBytes)
attr source packetSent
attr title "packets sent, packetBytes"
vector 216 GradysNetwork.quads[1].lo[0].lo rcvdPkFromHl:vector(packetBytes) ETV
attr interpolationmode none
attr recordingmode vector(packetBytes)
attr source packetReceivedFromUpper
attr title "packets received from higher layer, packetBytes"
vector 217 GradysNetwork.quads[1].lo[0].lo passedUpPk:vector(packetBytes) ETV
attr interpolationmode none
attr recordingmode vector(packetBytes)
attr source packetSentToUpper
attr title "packets passed to higher layer, packetBytes"
vector 218 GradysNetwork.quads[1].wlan[0].mac packetReceivedFromUpper:vector(packetBytes) ETV
attr interpolationmode none
attr recordingmode vector(packetBytes)
attr title "packets received from upper layer, packetBytes"
vector 219 GradysNetwork.quads[1].wlan[0].mac.dcf.channelAccess.pendingQueue incomingPacketLengths:vector ETV
attr interpolationmode none
attr recordingmode vector
attr source packetLength(packetPushStarted)
attr title "incoming packet lengths"
attr unit b
vector 220 GradysNetwork.quads[1].wlan[0].mac.dcf.channelAccess.pendingQueue incomingDataRate:vector ETV
attr interpolationmode linear
attr recordingmode vector
attr source throughput(packetPushStarted)
attr title "incoming datarate"
attr unit bps
vector 221 GradysNetwork.quads[1].wlan[0].mac.dcf.channelAccess.pendingQueue queueLength:vector ETV
attr autoWarmupFilter false
attr interpolationmode sample-hold
attr recordingmode vector
attr source "warmup(atomic(constant0(packetPushEnded) + count(packetPushStarted) - count(packetPulled) - count(packetRemoved) - count(packetDropped)))"
attr title "queue length"
attr unit pk
vector 222 GradysNetwork.quads[1].wlan[0].mac.dcf.channelAccess.pendingQueue queueBitLength:vector ETV
attr autoWarmupFilter false
attr interpolationmode sample-hold
attr recordingmode vector
attr source "warmup(atomic(constant0(packetPushEnded) + sum(packetLength(packetPushStarted)) - sum(packetLength(packetPulled)) - sum(packetLength(packetRemoved)) - sum(packetLength(packetDropped))))"
attr title "queue bit length"
attr unit b
vector 223 GradysNetwork.quads[1].wlan[0].mac.dcf.channelAccess.contention backoffPeriodGenerated:vector ETV
attr interpolationmode none
attr recordingmode vector
attr title "backoff periods"
vector 224 GradysNetwork.quads[1].udp packetReceived:vector(packetBytes) ETV
attr interpolationmode none
attr recordingmode vector(packetBytes)
attr source packetReceived
attr title "packets received, packetBytes"
vector 225 GradysNetwork.quads[1].wlan[0].mac.dcf.channelAccess.pendingQueue queueingTime:vector ETV
attr interpolationmode none
attr recordingmode vector
attr source queueingTime(packetPulled)
attr title "queueing times"
attr unit s
vector 226 GradysNetwork.quads[1].wlan[0].mac.dcf.channelAccess.pendingQueue outgoingPacketLengths:vector ETV
attr interpolationmode none
attr recordingmode vector
attr source packetLength(packetPulled)
attr title "outgoing packet lengths"
attr unit b
vector 227 GradysNetwork.quads[1].wlan[0].mac.dcf.channelAccess.pendingQueue outgoingDataRate:vector ETV
attr interpolationmode linear
attr recordingmode vector
attr source throughput(packetPulled)
attr title "outgoing datarate"
attr unit bps
vector 228 GradysNetwork.quads[1].wlan[0].mac.dcf datarateSelected:vector ETV
attr interpolationmode none
attr recordingmode vector
attr title "datarates selected"
vector 229 GradysNetwork.quads[1].wlan[0].mac packetSentToLower:vector(packetBytes) ETV
attr interpolationmode none
attr recordingmode vector(packetBytes)
attr title "packets sent to lower layer, packetBytes"
vector 230 GradysNetwork.quads[1].wlan[0].radio transmissionState:vector ETV
attr interpolationmode sample-hold
attr recordingmode vector
attr source transmissionStateChanged
attr title "Radio transmission state"
vector 231 GradysNetwork.quads[1].wlan[0].mac.dcf packetSentToPeer:vector(packetBytes) ETV
attr interpolationmode none
attr recordingmode vector(packetBytes)
attr title "packets sent, packetBytes"
vector 232 GradysNetwork.quads[1].wlan[0].mac.dcf packetSentToPeerMulticast:vector(packetBytes) ETV
attr interpolationmode none
attr recordingmode vector(packetBytes)
attr source ieee80211Multicast(packetSentToPeer)
attr title "packets sent: multicast, packetBytes"
vector 233 GradysNetwork.quads[1].wlan[0].mac.dcf packetSentToPeerWithoutRetry:vector(packetBytes) ETV
attr interpolationmode none
attr recordingmode vector(packetBytes)
attr source ieee80211NotRetry(packetSentToPeer)
attr title "packets sent: without retry, packetBytes"
vector 234 GradysNetwork.quads[1].wlan[0].mac.dcf.channelAccess.inProgressFrames queueingTime:vector ETV
attr interpolationmode none
attr recordingmode vector
attr source queueingTime(packetDequeued)
attr title "queueing times"
vector 235 GradysNetwork.quads[0].ipv4.arp arpRequestSent:vector(packetBytes) ETV
attr recordingmode vector(packetBytes)
attr source arpRequestSent
attr title "ARP request sent, packetBytes"
vector 236 GradysNetwork.quads[1].ipv4.arp arpReplySent:vector(packetBytes) ETV
attr recordingmode vector(packetBytes)
attr source arpReplySent
attr title "ARP replies sent, packetBytes"
vector 237 GradysNetwork.quads[0].wlan[0].mac.dcf packetSentToPeerBroadcast:vector(packetBytes) ETV
attr interpolationmode none
attr recordingmode vector(packetBytes)
attr source ieee80211Broadcast(packetSentToPeer)
attr title "packets sent: broadcast , packetBytes"
vector 238 GradysNetwork.groundStation.wlan[0].mac.dcf packetReceivedFromPeerBroadcast:vector(packetBytes) ETV
attr interpolationmode none
attr recordingmode vector(packetBytes)
attr source ieee80211Broadcast(packetReceivedFromPeer)
attr title "packets received: broadcast, packetBytes"
vector 239 GradysNetwork.quads[1].wlan[0].mac.dcf packetSentToPeerUnicast:vector(packetBytes) ETV
attr interpolationmode none
attr recordingmode vector(packetBytes)
attr source ieee80211Unicast(packetSentToPeer)
attr title "packets sent: unicast, packetBytes"
vector 240 GradysNetwork.quads[0].wlan[0].mac.dcf packetDrop:vector(packetBytes) ETV
attr interpolationmode none
attr recordingmode vector(packetBytes)
attr source packetDropped
attr title "packet drops, packetBytes"
vector 241 GradysNetwork.quads[0].wlan[0].mac.dcf packetDropNotAddressedToUs:vector(packetBytes) ETV
attr interpolationmode none
attr recordingmode vector(packetBytes)
attr source packetDropReasonIsNotAddressedToUs(packetDropped)
attr title "packet drops: not addressed to us, packetBytes"
vector 242 GradysNetwork.quads[0].wlan[0].mac packetDrop:vector(packetBytes) ETV
attr interpolationmode none
attr recordingmode vector(packetBytes)
attr source packetDropped
attr title "packet drops, packetBytes"
vector 243 GradysNetwork.quads[0].wlan[0].mac packetDropNotAddressedToUs:vector(packetBytes) ETV
attr interpolationmode none
attr recordingmode vector(packetBytes)
attr source packetDropReasonIsNotAddressedToUs(packetDropped)
attr title "packet drops: not addressed to us, packetBytes"
vector 244 GradysNetwork.quads[1].wlan[0].mac.dcf packetReceivedFromPeerUnicast:vector(packetBytes) ETV
attr interpolationmode none
attr recordingmode vector(packetBytes)
attr source ieee80211Unicast(packetReceivedFromPeer)
attr title "packets received: unicast, packetBytes"
vector 245 GradysNetwork.groundStation.wlan[0].mac.dcf packetDrop:vector(packetBytes) ETV
attr interpolationmode none
attr recordingmode vector(packetBytes)
attr source packetDropped
attr title "packet drops, packetBytes"
vector 246 GradysNetwork.groundStation.wlan[0].mac.dcf packetDropNotAddressedToUs:vector(packetBytes) ETV
attr interpolationmode none
attr recordingmode vector(packetBytes)
attr source packetDropReasonIsNotAddressedToUs(packetDropped)
attr title "packet drops: not addressed to us, packetBytes"
vector 247 GradysNetwork.groundStation.wlan[0].mac packetDrop:vector(packetBytes) ETV
attr interpolationmode none
attr recordingmode vector(packetBytes)
attr source packetDropped
attr title "packet drops, packetBytes"
vector 248 GradysNetwork.groundStation.wlan[0].mac packetDropNotAddressedToUs:vector(packetBytes) ETV
attr interpolationmode none
attr recordingmode vector(packetBytes)
attr source packetDropReasonIsNotAddressedToUs(packetDropped)
attr title "packet drops: not addressed to us, packetBytes"
vector 249 GradysNetwork.quads[1].app[0] packetReceived:vector(packetBytes) ETV
attr interpolationmode none
attr recordingmode vector(packetBytes)
attr source packetReceived
attr title "packets received, packetBytes"
vector 250 GradysNetwork.quads[1].app[0] throughput:vector ETV
attr recordingmode vector
attr source throughput(packetReceived)
attr title throughput
attr unit bps
vector 251 GradysNetwork.quads[1].app[0] rcvdPkLifetime:vector ETV
attr interpolationmode none
attr recordingmode vector
attr source dataAge(packetReceived)
attr title "received packet lifetime"
attr unit s
0	0	0	0
0	0	0	0
0	80	1.276913232552	1
0	93	1.276967232552	0
0	154	1.27793727618	1
0	204	1.278031319833	0
0	326	2.150393230952	1
0	339	2.150447230952	0
0	467	3.020565678674	1
0	480	3.020619678674	0
0	598	3.646729150404	1
0	611	3.646783150404	0
0	717	3.845558351639	1
0	730	3.845612351639	0
0	850	4.491707649556	1
0	863	4.491761649556	0
0	989	5.025169950108	1
0	1002	5.025223950108	0
0	1126	5.807172329701	1
0	1139	5.807226329701	0
0	1269	6.774683611592	1
0	1282	6.774737611592	0
0	1390	6.940464412413	1
0	1403	6.940518412413	0
0	1525	7.53252490742	1
0	1538	7.53257890742	0
0	1673	8.495703743773	1
0	1686	8.495757743773	0
0	1814	9.127795158325	1
0	1827	9.127849158325	0
0	1948	9.771527575767	1
0	1961	9.771581575767	0
0	2075	10.090373509373	1
0	2088	10.090427509373	0
0	2200	10.423343948178	1
0	2213	10.423397948178	0
0	2325	10.789806688555	1
0	2338	10.789860688555	0
0	2472	11.747708898175	1
0	2485	11.747762898175	0
0	2609	12.564906753594	1
0	2622	12.564960753594	0
0	2752	13.418844258382	1
0	2765	13.418898258382	0
0	2875	13.731178802639	1
0	2888	13.731232802639	0
0	2992	13.816153871463	1
0	3005	13.816207871463	0
0	3123	14.211058416575	1
0	3136	14.211112416575	0
0	3264	15.020212219533	1
0	3277	15.020266219533	0
0	3391	15.552008083216	1
0	3404	15.552062083216	0
0	3514	15.979063544713	1
0	3527	15.979117544713	0
0	3652	16.482627867203	1
0	3665	16.482681867203	0
0	3772	16.611288468751	1
0	3785	16.611342468751	0
0	3887	16.628618458106	1
0	3900	16.628672458106	0
0	4023	17.152375821048	1
0	4036	17.152429821048	0
0	4167	18.030641753569	1
0	4180	18.030695753569	0
0	4288	18.327396630645	1
0	4301	18.327450630645	0
0	4429	19.067122099419	1
0	4442	19.067176099419	0
0	4556	19.535733780593	1
0	4569	19.535787780593	0
0	4699	20.46939407471	1
0	4712	20.46944807471	0
0	4842	21.368902204275	1
0	4855	21.368956204275	0
0	4983	22.08972892502	1
0	4996	22.08978292502	0
0	5100	22.183327732497	1
0	5113	22.183381732497	0
0	5221	22.429052556769	1
0	5234	22.429106556769	0
0	5340	22.572086411141	1
0	5353	22.572140411141	0
0	5475	23.183072613303	1
0	5488	23.183126613303	0
0	5598	23.51355065752	1
0	5611	23.51360465752	0
0	5734	24.154366752421	1
0	5747	24.154420752421	0
0	5864	24.532431082599	1
0	5877	24.532485082599	0
0	5987	24.840407169992	1
0	6000	24.840461169992	0
0	6115	25.190639263928	1
0	6128	25.190693263928	0
0	6236	25.320478836128	1
0	6249	25.320532836128	0
0	6380	26.268445033945	1
0	6393	26.268499033945	0
0	6525	27.129428362607	1
0	6538	27.129482362607	0
0	6656	27.841005864517	1
0	6669	27.841059864517	0
0	6773	27.918625844292	1
0	6786	27.918679844292	0
0	6908	28.323448467854	1
0	6921	28.323502467854	0
0	7037	28.995685485862	1
0	7050	28.995739485862	0
0	7176	29.773593133502	1
0	7189	29.773647133502	0
0	7390	30.075921380765	1
0	7403	30.075971380765	0
0	7608	30.077837523817	1
0	7662	30.077935523817	0
0	7742	30.078673523817	1
0	7797	30.078771523817	0
0	7905	30.306062582447	1
0	7918	30.306116582447	0
0	8025	30.437321621945	1
0	8038	30.437375621945	0
0	8524	31.43027769543	1
0	8537	31.43033169543	0
0	8650	31.804287539433	1
0	8663	31.804341539433	0
0	9149	32.585897769298	1
0	9162	32.585951769298	0
0	9391	32.832301143323	1
0	9404	32.832355143323	0
0	9773	33.786712725994	1
0	9786	33.786766725994	0
0	10032	34.527866618667	1
0	10045	34.527920618667	0
0	10272	34.879374493555	1
0	10285	34.879428493555	0
0	10515	35.153959685997	1
0	10572	35.154057855821	0
0	10650	35.154515855821	1
0	10708	35.154614025623	0
0	10927	35.577992680847	1
0	10940	35.578046680847	0
0	11184	36.248739361195	1
0	11197	36.248793361195	0
0	11445	37.140138348417	1
0	11458	37.140192348417	0
0	11567	37.322047826707	1
0	11580	37.322101826707	0
0	12063	38.148709065203	1
0	12076	38.148763065203	0
0	12187	38.423825679188	1
0	12200	38.423879679188	0
0	12429	38.750666413986	1
0	12442	38.750720413986	0
0	12566	39.305794732513	1
0	12579	39.305848732513	0
0	12823	40.075662849906	1
0	12836	40.075716849906	0
0	13058	40.311296574392	1
0	13112	40.311394584874	0
0	13193	40.312552584896	1
0	13248	40.312650595428	0
0	13353	40.524239198849	1
0	13366	40.524293198849	0
0	13727	41.148643986572	1
0	13740	41.148697986572	0
0	13855	41.635546789988	1
0	13868	41.635600789988	0
0	14098	41.981948013353	1
0	14111	41.982002013353	0
0	14239	42.751220432791	1
0	14252	42.751274432791	0
0	14621	43.715812949341	1
0	14634	43.715866949341	0
0	14882	44.679165396505	1
0	14895	44.679219396505	0
0	14997	44.685588446383	1
0	15010	44.685642446383	0
0	15369	45.421432735067	1
0	15426	45.421530894933	0
0	15504	45.422088894933	1
0	15562	45.422187054789	0
0	15657	45.571610986374	1
0	15670	45.571664986374	0
0	15779	45.783729933354	1
0	15792	45.783783933354	0
0	16017	45.815311737241	1
0	16030	45.815365737241	0
0	16132	45.821795027999	1
0	16145	45.821849027999	0
0	16268	46.281518827284	1
0	16281	46.281572827284	0
0	16394	46.644308156711	1
0	16407	46.644362156711	0
0	16647	47.119570120145	1
0	16660	47.119624120145	0
1	0	0	0
1	0	0	0
1	80	1.276913232552	1
1	93	1.276967232552	0
1	154	1.27793727618	1
1	204	1.278031319833	0
1	326	2.150393230952	1
1	339	2.150447230952	0
1	467	3.020565678674	1
1	480	3.020619678674	0
1	598	3.646729150404	1
1	611	3.646783150404	0
1	717	3.845558351639	1
1	730	3.845612351639	0
1	850	4.491707649556	1
1	863	4.491761649556	0
1	989	5.025169950108	1
1	1002	5.025223950108	0
1	1126	5.807172329701	1
1	1139	5.807226329701	0
1	1269	6.774683611592	1
1	1282	6.774737611592	0
1	1390	6.940464412413	1
1	1403	6.940518412413	0
1	1525	7.53252490742	1
1	1538	7.53257890742	0
1	1673	8.495703743773	1
1	1686	8.495757743773	0
1	1814	9.127795158325	1
1	1827	9.127849158325	0
1	1948	9.771527575767	1
1	1961	9.771581575767	0
1	2075	10.090373509373	1
1	2088	10.090427509373	0
1	2200	10.423343948178	1
1	2213	10.423397948178	0
1	2325	10.789806688555	1
1	2338	10.789860688555	0
1	2472	11.747708898175	1
1	2485	11.747762898175	0
1	2609	12.564906753594	1
1	2622	12.564960753594	0
1	2752	13.418844258382	1
1	2765	13.418898258382	0
1	2875	13.731178802639	1
1	2888	13.731232802639	0
1	2992	13.816153871463	1
1	3005	13.816207871463	0
1	3123	14.211058416575	1
1	3136	14.211112416575	0
1	3264	15.020212219533	1
1	3277	15.020266219533	0
1	3391	15.552008083216	1
1	3404	15.552062083216	0
1	3514	15.979063544713	1
1	3527	15.979117544713	0
1	3652	16.482627867203	1
1	3665	16.482681867203	0
1	3772	16.611288468751	1
1	3785	16.611342468751	0
1	3887	16.628618458106	1
1	3900	16.628672458106	0
1	4023	17.152375821048	1
1	4036	17.152429821048	0
1	4167	18.030641753569	1
1	4180	18.030695753569	0
1	4288	18.327396630645	1
1	4301	18.327450630645	0
1	4429	19.067122099419	1
1	4442	19.067176099419	0
1	4556	19.535733780593	1
1	4569	19.535787780593	0
1	4699	20.46939407471	1
1	4712	20.46944807471	0
1	4842	21.368902204275	1
1	4855	21.368956204275	0
1	4983	22.08972892502	1
1	4996	22.08978292502	0
1	5100	22.183327732497	1
1	5113	22.183381732497	0
1	5221	22.429052556769	1
1	5234	22.429106556769	0
1	5340	22.572086411141	1
1	5353	22.572140411141	0
1	5475	23.183072613303	1
1	5488	23.183126613303	0
1	5598	23.51355065752	1
1	5611	23.51360465752	0
1	5734	24.154366752421	1
1	5747	24.154420752421	0
1	5864	24.532431082599	1
1	5877	24.532485082599	0
1	5987	24.840407169992	1
1	6000	24.840461169992	0
1	6115	25.190639263928	1
1	6128	25.190693263928	0
1	6236	25.320478836128	1
1	6249	25.320532836128	0
1	6380	26.268445033945	1
1	6393	26.268499033945	0
1	6525	27.129428362607	1
1	6538	27.129482362607	0
1	6656	27.841005864517	1
1	6669	27.841059864517	0
1	6773	27.918625844292	1
1	6786	27.918679844292	0
1	6908	28.323448467854	1
1	6921	28.323502467854	0
1	7037	28.995685485862	1
1	7050	28.995739485862	0
1	7176	29.773593133502	1
1	7189	29.773647133502	0
1	7390	30.075921380765	1
1	7403	30.075971380765	0
1	7608	30.077837523817	1
1	7662	30.077935523817	0
1	7742	30.078673523817	1
1	7797	30.078771523817	0
1	7905	30.306062582447	1
1	7918	30.306116582447	0
1	8025	30.437321621945	1
1	8038	30.437375621945	0
1	8524	31.43027769543	1
1	8537	31.43033169543	0
1	8650	31.804287539433	1
1	8663	31.804341539433	0
1	9149	32.585897769298	1
1	9162	32.585951769298	0
1	9391	32.832301143323	1
1	9404	32.832355143323	0
1	9773	33.786712725994	1
1	9786	33.786766725994	0
1	10032	34.527866618667	1
1	10045	34.527920618667	0
1	10272	34.879374493555	1
1	10285	34.879428493555	0
1	10515	35.153959685997	1
1	10572	35.154057855821	0
1	10650	35.154515855821	1
1	10708	35.154614025623	0
1	10927	35.577992680847	1
1	10940	35.578046680847	0
1	11184	36.248739361195	1
1	11197	36.248793361195	0
1	11445	37.140138348417	1
1	11458	37.140192348417	0
1	11567	37.322047826707	1
1	11580	37.322101826707	0
1	12063	38.148709065203	1
1	12076	38.148763065203	0
1	12187	38.423825679188	1
1	12200	38.423879679188	0
1	12429	38.750666413986	1
1	12442	38.750720413986	0
1	12566	39.305794732513	1
1	12579	39.305848732513	0
1	12823	40.075662849906	1
1	12836	40.075716849906	0
1	13058	40.311296574392	1
1	13112	40.311394584874	0
1	13193	40.312552584896	1
1	13248	40.312650595428	0
1	13353	40.524239198849	1
1	13366	40.524293198849	0
1	13727	41.148643986572	1
1	13740	41.148697986572	0
1	13855	41.635546789988	1
1	13868	41.635600789988	0
1	14098	41.981948013353	1
1	14111	41.982002013353	0
1	14239	42.751220432791	1
1	14252	42.751274432791	0
1	14621	43.715812949341	1
1	14634	43.715866949341	0
1	14882	44.679165396505	1
1	14895	44.679219396505	0
1	14997	44.685588446383	1
1	15010	44.685642446383	0
1	15369	45.421432735067	1
1	15426	45.421530894933	0
1	15504	45.422088894933	1
1	15562	45.422187054789	0
1	15657	45.571610986374	1
1	15670	45.571664986374	0
1	15779	45.783729933354	1
1	15792	45.783783933354	0
1	16017	45.815311737241	1
1	16030	45.815365737241	0
1	16132	45.821795027999	1
1	16145	45.821849027999	0
1	16268	46.281518827284	1
1	16281	46.281572827284	0
1	16394	46.644308156711	1
1	16407	46.644362156711	0
1	16647	47.119570120145	1
1	16660	47.119624120145	0
2	0	0	0
2	0	0	0
2	76	1.276913232552	1
2	79	1.276913232552	0
2	144	1.27754727618	1
2	153	1.27793727618	0
2	322	2.150393230952	1
2	325	2.150393230952	0
2	463	3.020565678674	1
2	466	3.020565678674	0
2	594	3.646729150404	1
2	597	3.646729150404	0
2	713	3.845558351639	1
2	716	3.845558351639	0
2	846	4.491707649556	1
2	849	4.491707649556	0
2	985	5.025169950108	1
2	988	5.025169950108	0
2	1122	5.807172329701	1
2	1125	5.807172329701	0
2	1265	6.774683611592	1
2	1268	6.774683611592	0
2	1386	6.940464412413	1
2	1389	6.940464412413	0
2	1521	7.53252490742	1
2	1524	7.53252490742	0
2	1669	8.495703743773	1
2	1672	8.495703743773	0
2	1810	9.127795158325	1
2	1813	9.127795158325	0
2	1944	9.771527575767	1
2	1947	9.771527575767	0
2	2071	10.090373509373	1
2	2074	10.090373509373	0
2	2196	10.423343948178	1
2	2199	10.423343948178	0
2	2321	10.789806688555	1
2	2324	10.789806688555	0
2	2468	11.747708898175	1
2	2471	11.747708898175	0
2	2605	12.564906753594	1
2	2608	12.564906753594	0
2	2748	13.418844258382	1
2	2751	13.418844258382	0
2	2871	13.731178802639	1
2	2874	13.731178802639	0
2	2988	13.816153871463	1
2	2991	13.816153871463	0
2	3119	14.211058416575	1
2	3122	14.211058416575	0
2	3260	15.020212219533	1
2	3263	15.020212219533	0
2	3387	15.552008083216	1
2	3390	15.552008083216	0
2	3510	15.979063544713	1
2	3513	15.979063544713	0
2	3648	16.482627867203	1
2	3651	16.482627867203	0
2	3768	16.611288468751	1
2	3771	16.611288468751	0
2	3883	16.628618458106	1
2	3886	16.628618458106	0
2	4019	17.152375821048	1
2	4022	17.152375821048	0
2	4163	18.030641753569	1
2	4166	18.030641753569	0
2	4284	18.327396630645	1
2	4287	18.327396630645	0
2	4425	19.067122099419	1
2	4428	19.067122099419	0
2	4552	19.535733780593	1
2	4555	19.535733780593	0
2	4695	20.46939407471	1
2	4698	20.46939407471	0
2	4838	21.368902204275	1
2	4841	21.368902204275	0
2	4979	22.08972892502	1
2	4982	22.08972892502	0
2	5096	22.183327732497	1
2	5099	22.183327732497	0
2	5217	22.429052556769	1
2	5220	22.429052556769	0
[...]
273	16764	22.9	0
273	16764	23	0
273	16764	23.1	0
273	16764	23.2	0
273	16764	23.3	0
273	16764	23.4	0
273	16764	23.5	0
273	16764	23.6	0
273	16764	23.7	0
273	16764	23.8	0
273	16764	23.9	0
273	16764	24	0
273	16764	24.1	0
273	16764	24.2	0
273	16764	24.3	0
273	16764	24.4	0
273	16764	24.5	0
273	16764	24.6	0
273	16764	24.7	0
273	16764	24.8	0
273	16764	24.9	0
273	16764	25	0
273	16764	25.1	0
273	16764	25.2	0
273	16764	25.3	0
273	16764	25.4	0
273	16764	25.5	0
273	16764	25.6	0
273	16764	25.7	0
273	16764	25.8	0
273	16764	25.9	0
273	16764	26	0
273	16764	26.1	0
273	16764	26.2	0
273	16764	26.3	0
273	16764	26.4	0
273	16764	26.5	0
273	16764	26.6	0
273	16764	26.7	0
273	16764	26.8	0
273	16764	26.9	0
273	16764	27	0
273	16764	27.1	0
273	16764	27.2	0
273	16764	27.3	0
273	16764	27.4	0
273	16764	27.5	0
273	16764	27.6	0
273	16764	27.7	0
273	16764	27.8	0
273	16764	27.9	0
273	16764	28	0
273	16764	28.1	0
273	16764	28.2	0
273	16764	28.3	0
273	16764	28.4	0
273	16764	28.5	0
273	16764	28.6	0
273	16764	28.7	0
273	16764	28.8	0
273	16764	28.9	0
273	16764	29	0
273	16764	29.1	0
273	16764	29.2	0
273	16764	29.3	0
273	16764	29.4	0
273	16764	29.5	0
273	16764	29.6	0
273	16764	29.7	0
273	16764	29.8	0
273	16764	29.9	0
273	16764	30	0
273	16764	30.1	0
273	16764	30.2	0
273	16764	30.3	0
273	16764	30.4	0
273	16764	30.5	0
273	16764	30.6	0
273	16764	30.7	0
273	16764	30.8	0
273	16764	30.9	0
273	16764	31	0
273	16764	31.1	0
273	16764	31.2	0
273	16764	31.3	0
273	16764	31.4	0
273	16764	31.5	0
273	16764	31.6	0
273	16764	31.7	0
273	16764	31.8	0
273	16764	31.9	0
273	16764	32	0
273	16764	32.1	0
273	16764	32.2	0
273	16764	32.3	0
273	16764	32.4	0
273	16764	32.5	0
273	16764	32.6	0
273	16764	32.7	0
273	16764	32.8	0
273	16764	32.9	0
273	16764	33	0
273	16764	33.1	0
273	16764	33.2	0
273	16764	33.3	0
273	16764	33.4	0
273	16764	33.5	0
273	16764	33.6	0
273	16764	33.7	0
273	16764	33.8	0
273	16764	33.9	0
273	16764	34	0
273	16764	34.1	0
273	16764	34.2	0
273	16764	34.3	0
273	16764	34.4	0
273	16764	34.5	0
273	16764	34.6	0
273	16764	34.7	0
273	16764	34.8	0
273	16764	34.9	0
273	16764	35	0
273	16764	35.1	0
273	16764	35.2	0
273	16764	35.3	0
273	16764	35.4	0
273	16764	35.5	0
273	16764	35.6	0
273	16764	35.7	0
273	16764	35.8	0
273	16764	35.9	0
273	16764	36	0
273	16764	36.1	0
273	16764	36.2	0
273	16764	36.3	0
273	16764	36.4	0
273	16764	36.5	0
273	16764	36.6	0
273	16764	36.7	0
273	16764	36.8	0
273	16764	36.9	0
273	16764	37	0
273	16764	37.1	0
273	16764	37.2	0
273	16764	37.3	0
273	16764	37.4	0
273	16764	37.5	0
273	16764	37.6	0
273	16764	37.7	0
273	16764	37.8	0
273	16764	37.9	0
273	16764	38	0
273	16764	38.1	0
273	16764	38.2	0
273	16764	38.3	0
273	16764	38.4	0
273	16764	38.5	0
273	16764	38.6	0
273	16764	38.7	0
273	16764	38.8	0
273	16764	38.9	0
273	16764	39	0
273	16764	39.1	0
273	16764	39.2	0
273	16764	39.3	0
273	16764	39.4	0
273	16764	39.5	0
273	16764	39.6	0
273	16764	39.7	0
273	16764	39.8	0
273	16764	39.9	0
273	16764	40	0
273	16764	40.1	0
273	16764	40.2	0
273	16764	40.3	0
273	16764	40.4	0
273	16764	40.5	0
273	16764	40.6	0
273	16764	40.7	0
273	16764	40.8	0
273	16764	40.9	0
273	16764	41	0
273	16764	41.1	0
273	16764	41.2	0
273	16764	41.3	0
273	16764	41.4	0
273	16764	41.5	0
273	16764	41.6	0
273	16764	41.7	0
273	16764	41.8	0
273	16764	41.9	0
273	16764	42	0
273	16764	42.1	0
273	16764	42.2	0
273	16764	42.3	0
273	16764	42.4	0
273	16764	42.5	0
273	16764	42.6	0
273	16764	42.7	0
273	16764	42.8	0
273	16764	42.9	0
273	16764	43	0
273	16764	43.1	0
273	16764	43.2	0
273	16764	43.3	0
273	16764	43.4	0
273	16764	43.5	0
273	16764	43.6	0
273	16764	43.7	0
273	16764	43.8	0
273	16764	43.9	0
273	16764	44	0
273	16764	44.1	0
273	16764	44.2	0
273	16764	44.3	0
273	16764	44.4	0
273	16764	44.5	0
273	16764	44.6	0
273	16764	44.7	0
273	16764	44.8	0
273	16764	44.9	0
273	16764	45	0
273	16764	45.1	0
273	16764	45.2	0
273	16764	45.3	0
273	16764	45.4	0
273	16764	45.5	0
273	16764	45.6	0
273	16764	45.7	0
273	16764	45.8	0
273	16764	45.9	0
273	16764	46	0
273	16764	46.1	0
273	16764	46.2	0
273	16764	46.3	0
273	16764	46.4	0
273	16764	46.5	0
273	16764	46.6	0
273	16764	46.7	0
273	16764	46.8	0
273	16764	46.9	0
273	16764	47	0
273	16764	47.1	0
273	16764	47.2	0
273	16764	47.3	0
273	16764	47.4	0
273	16764	47.5	0
273	16764	47.557467959423	0
274	16764	0.1	0
274	16764	0.2	0
274	16764	0.3	0
274	16764	0.4	0
274	16764	0.5	0
274	16764	0.6	0
274	16764	0.7	0
274	16764	0.8	0
274	16764	0.9	0
274	16764	1	0
274	16764	1.1	0
274	16764	1.2	0
274	16764	1.3	0
274	16764	1.4	0
274	16764	1.5	0
274	16764	1.6	0
274	16764	1.7	0
274	16764	1.8	0
274	16764	1.9	0
274	16764	2	0
274	16764	2.1	0
274	16764	2.2	0
274	16764	2.3	0
274	16764	2.4	0
274	16764	2.5	0
274	16764	2.6	0
274	16764	2.7	0
274	16764	2.8	0
274	16764	2.9	0
274	16764	3	0
274	16764	3.1	0
274	16764	3.2	0
274	16764	3.3	0
274	16764	3.4	0
274	16764	3.5	0
274	16764	3.6	0
274	16764	3.7	0
274	16764	3.8	0
274	16764	3.9	0
274	16764	4	0
274	16764	4.1	0
274	16764	4.2	0
274	16764	4.3	0
274	16764	4.4	0
274	16764	4.5	0
274	16764	4.6	0
274	16764	4.7	0
274	16764	4.8	0
274	16764	4.9	0
274	16764	5	0
274	16764	5.1	0
274	16764	5.2	0
274	16764	5.3	0
274	16764	5.4	0
274	16764	5.5	0
274	16764	5.6	0
274	16764	5.7	0
274	16764	5.8	0
274	16764	5.9	0
274	16764	6	0
274	16764	6.1	0
274	16764	6.2	0
274	16764	6.3	0
274	16764	6.4	0
274	16764	6.5	0
274	16764	6.6	0
274	16764	6.7	0
274	16764	6.8	0
274	16764	6.9	0
274	16764	7	0
274	16764	7.1	0
274	16764	7.2	0
274	16764	7.3	0
274	16764	7.4	0
274	16764	7.5	0
274	16764	7.6	0
274	16764	7.7	0
274	16764	7.8	0
274	16764	7.9	0
274	16764	8	0
274	16764	8.1	0
274	16764	8.2	0
274	16764	8.3	0
274	16764	8.4	0
274	16764	8.5	0
274	16764	8.6	0
274	16764	8.7	0
274	16764	8.8	0
274	16764	8.9	0
274	16764	9	0
274	16764	9.1	0
274	16764	9.2	0
274	16764	9.3	0
274	16764	9.4	0
274	16764	9.5	0
274	16764	9.6	0
274	16764	9.7	0
274	16764	9.8	0
274	16764	9.9	0
274	16764	10	0
274	16764	10.1	0
274	16764	10.2	0
274	16764	10.3	0
274	16764	10.4	0
274	16764	10.5	0
274	16764	10.6	0
274	16764	10.7	0
274	16764	10.8	0
274	16764	10.9	0
274	16764	11	0
274	16764	11.1	0
274	16764	11.2	0
274	16764	11.3	0
274	16764	11.4	0
274	16764	11.5	0
274	16764	11.6	0
274	16764	11.7	0
274	16764	11.8	0
274	16764	11.9	0
274	16764	12	0
274	16764	12.1	0
274	16764	12.2	0
274	16764	12.3	0
274	16764	12.4	0
274	16764	12.5	0
274	16764	12.6	0
274	16764	12.7	0
274	16764	12.8	0
274	16764	12.9	0
274	16764	13	0
274	16764	13.1	0
274	16764	13.2	0
274	16764	13.3	0
274	16764	13.4	0
274	16764	13.5	0
274	16764	13.6	0
274	16764	13.7	0
274	16764	13.8	0
274	16764	13.9	0
274	16764	14	0
274	16764	14.1	0
274	16764	14.2	0
274	16764	14.3	0
274	16764	14.4	0
274	16764	14.5	0
274	16764	14.6	0
274	16764	14.7	0
274	16764	14.8	0
274	16764	14.9	0
274	16764	15	0
274	16764	15.1	0
274	16764	15.2	0
274	16764	15.3	0
274	16764	15.4	0
274	16764	15.5	0
274	16764	15.6	0
274	16764	15.7	0
274	16764	15.8	0
274	16764	15.9	0
274	16764	16	0
274	16764	16.1	0
274	16764	16.2	0
274	16764	16.3	0
274	16764	16.4	0
274	16764	16.5	0
274	16764	16.6	0
274	16764	16.7	0
274	16764	16.8	0
274	16764	16.9	0
274	16764	17	0
274	16764	17.1	0
274	16764	17.2	0
274	16764	17.3	0
274	16764	17.4	0
274	16764	17.5	0
274	16764	17.6	0
274	16764	17.7	0
274	16764	17.8	0
274	16764	17.9	0
274	16764	18	0
274	16764	18.1	0
274	16764	18.2	0
274	16764	18.3	0
274	16764	18.4	0
274	16764	18.5	0
274	16764	18.6	0
274	16764	18.7	0
274	16764	18.8	0
274	16764	18.9	0
274	16764	19	0
274	16764	19.1	0
274	16764	19.2	0
274	16764	19.3	0
274	16764	19.4	0
274	16764	19.5	0
274	16764	19.6	0
274	16764	19.7	0
274	16764	19.8	0
274	16764	19.9	0
274	16764	20	0
274	16764	20.1	0
274	16764	20.2	0
274	16764	20.3	0
274	16764	20.4	0
274	16764	20.5	0
274	16764	20.6	0
274	16764	20.7	0
274	16764	20.8	0
274	16764	20.9	0
274	16764	21	0
274	16764	21.1	0
274	16764	21.2	0
274	16764	21.3	0
274	16764	21.4	0
274	16764	21.5	0
274	16764	21.6	0
274	16764	21.7	0
274	16764	21.8	0
274	16764	21.9	0
274	16764	22	0
274	16764	22.1	0
274	16764	22.2	0
274	16764	22.3	0
274	16764	22.4	0
274	16764	22.5	0
274	16764	22.6	0
274	16764	22.7	0
274	16764	22.8	0
274	16764	22.9	0
274	16764	23	0
274	16764	23.1	0
274	16764	23.2	0
274	16764	23.3	0
274	16764	23.4	0
274	16764	23.5	0
274	16764	23.6	0
274	16764	23.7	0
274	16764	23.8	0
274	16764	23.9	0
274	16764	24	0
274	16764	24.1	0
274	16764	24.2	0
274	16764	24.3	0
274	16764	24.4	0
274	16764	24.5	0
274	16764	24.6	0
274	16764	24.7	0
274	16764	24.8	0
274	16764	24.9	0
274	16764	25	0
274	16764	25.1	0
274	16764	25.2	0
274	16764	25.3	0
274	16764	25.4	0
274	16764	25.5	0
274	16764	25.6	0
274	16764	25.7	0
274	16764	25.8	0
274	16764	25.9	0
274	16764	26	0
274	16764	26.1	0
274	16764	26.2	0
274	16764	26.3	0
274	16764	26.4	0
274	16764	26.5	0
274	16764	26.6	0
274	16764	26.7	0
274	16764	26.8	0
274	16764	26.9	0
274	16764	27	0
274	16764	27.1	0
274	16764	27.2	0
274	16764	27.3	0
274	16764	27.4	0
274	16764	27.5	0
274	16764	27.6	0
274	16764	27.7	0
274	16764	27.8	0
274	16764	27.9	0
274	16764	28	0
274	16764	28.1	0
274	16764	28.2	0
274	16764	28.3	0
274	16764	28.4	0
274	16764	28.5	0
274	16764	28.6	0
274	16764	28.7	0
274	16764	28.8	0
274	16764	28.9	0
274	16764	29	0
274	16764	29.1	0
274	16764	29.2	0
274	16764	29.3	0
274	16764	29.4	0
274	16764	29.5	0
274	16764	29.6	0
274	16764	29.7	0
274	16764	29.8	0
274	16764	29.9	0
274	16764	30	0
274	16764	30.1	0
274	16764	30.2	0
274	16764	30.3	0
274	16764	30.4	0
274	16764	30.5	0
274	16764	30.6	0
274	16764	30.7	0
274	16764	30.8	0
274	16764	30.9	0
274	16764	31	0
274	16764	31.1	0
274	16764	31.2	0
274	16764	31.3	0
274	16764	31.4	0
274	16764	31.5	0
274	16764	31.6	0
274	16764	31.7	0
274	16764	31.8	0
274	16764	31.9	0
274	16764	32	0
274	16764	32.1	0
274	16764	32.2	0
274	16764	32.3	0
274	16764	32.4	0
274	16764	32.5	0
274	16764	32.6	0
274	16764	32.7	0
274	16764	32.8	0
274	16764	32.9	0
274	16764	33	0
274	16764	33.1	0
274	16764	33.2	0
274	16764	33.3	0
274	16764	33.4	0
274	16764	33.5	0
274	16764	33.6	0
274	16764	33.7	0
274	16764	33.8	0
274	16764	33.9	0
274	16764	34	0
274	16764	34.1	0
274	16764	34.2	0
274	16764	34.3	0
274	16764	34.4	0
274	16764	34.5	0
274	16764	34.6	0
274	16764	34.7	0
274	16764	34.8	0
274	16764	34.9	0
274	16764	35	0
274	16764	35.1	0
274	16764	35.2	0
274	16764	35.3	0
274	16764	35.4	0
274	16764	35.5	0
274	16764	35.6	0
274	16764	35.7	0
274	16764	35.8	0
274	16764	35.9	0
274	16764	36	0
274	16764	36.1	0
274	16764	36.2	0
274	16764	36.3	0
274	16764	36.4	0
274	16764	36.5	0
274	16764	36.6	0
274	16764	36.7	0
274	16764	36.8	0
274	16764	36.9	0
274	16764	37	0
274	16764	37.1	0
274	16764	37.2	0
274	16764	37.3	0
274	16764	37.4	0
274	16764	37.5	0
274	16764	37.6	0
274	16764	37.7	0
274	16764	37.8	0
274	16764	37.9	0
274	16764	38	0
274	16764	38.1	0
274	16764	38.2	0
274	16764	38.3	0
274	16764	38.4	0
274	16764	38.5	0
274	16764	38.6	0
274	16764	38.7	0
274	16764	38.8	0
274	16764	38.9	0
274	16764	39	0
274	16764	39.1	0
274	16764	39.2	0
274	16764	39.3	0
274	16764	39.4	0
274	16764	39.5	0
274	16764	39.6	0
274	16764	39.7	0
274	16764	39.8	0
274	16764	39.9	0
274	16764	40	0
274	16764	40.1	0
274	16764	40.2	0
274	16764	40.3	0
274	16764	40.4	0
274	16764	40.5	0
274	16764	40.6	0
274	16764	40.7	0
274	16764	40.8	0
274	16764	40.9	0
274	16764	41	0
274	16764	41.1	0
274	16764	41.2	0
274	16764	41.3	0
274	16764	41.4	0
274	16764	41.5	0
274	16764	41.6	0
274	16764	41.7	0
274	16764	41.8	0
274	16764	41.9	0
274	16764	42	0
274	16764	42.1	0
274	16764	42.2	0
274	16764	42.3	0
274	16764	42.4	0
274	16764	42.5	0
274	16764	42.6	0
274	16764	42.7	0
274	16764	42.8	0
274	16764	42.9	0
274	16764	43	0
274	16764	43.1	0
274	16764	43.2	0
274	16764	43.3	0
274	16764	43.4	0
274	16764	43.5	0
274	16764	43.6	0
274	16764	43.7	0
274	16764	43.8	0
274	16764	43.9	0
274	16764	44	0
274	16764	44.1	0
274	16764	44.2	0
274	16764	44.3	0
274	16764	44.4	0
274	16764	44.5	0
274	16764	44.6	0
274	16764	44.7	0
274	16764	44.8	0
274	16764	44.9	0
274	16764	45	0
274	16764	45.1	0
274	16764	45.2	0
274	16764	45.3	0
274	16764	45.4	0
274	16764	45.5	0
274	16764	45.6	0
274	16764	45.7	0
274	16764	45.8	0
274	16764	45.9	0
274	16764	46	0
274	16764	46.1	0
274	16764	46.2	0
274	16764	46.3	0
274	16764	46.4	0
274	16764	46.5	0
274	16764	46.6	0
274	16764	46.7	0
274	16764	46.8	0
274	16764	46.9	0
274	16764	47	0
274	16764	47.1	0
274	16764	47.2	0
274	16764	47.3	0
274	16764	47.4	0
274	16764	47.5	0
274	16764	47.557467959423	0
275	16764	0.1	0
275	16764	0.2	0
275	16764	0.3	0
275	16764	0.4	0
275	16764	0.5	0
275	16764	0.6	0
275	16764	0.7	0
275	16764	0.8	0
275	16764	0.9	0
275	16764	1	0
275	16764	1.1	0
275	16764	1.2	0
275	16764	1.3	0
275	16764	1.4	0
275	16764	1.5	0
275	16764	1.6	0
275	16764	1.7	0
275	16764	1.8	0
275	16764	1.9	0
275	16764	2	0
275	16764	2.1	0
275	16764	2.2	0
275	16764	2.3	0
275	16764	2.4	0
275	16764	2.5	0
275	16764	2.6	0
275	16764	2.7	0
275	16764	2.8	0
275	16764	2.9	0
275	16764	3	0
275	16764	3.1	0
275	16764	3.2	0
275	16764	3.3	0
275	16764	3.4	0
275	16764	3.5	0
275	16764	3.6	0
275	16764	3.7	0
275	16764	3.8	0
275	16764	3.9	0
275	16764	4	0
275	16764	4.1	0
275	16764	4.2	0
275	16764	4.3	0
275	16764	4.4	0
275	16764	4.5	0
275	16764	4.6	0
275	16764	4.7	0
275	16764	4.8	0
275	16764	4.9	0
275	16764	5	0
275	16764	5.1	0
275	16764	5.2	0
275	16764	5.3	0
275	16764	5.4	0
275	16764	5.5	0
275	16764	5.6	0
275	16764	5.7	0
275	16764	5.8	0
275	16764	5.9	0
275	16764	6	0
275	16764	6.1	0
275	16764	6.2	0
275	16764	6.3	0
275	16764	6.4	0
275	16764	6.5	0
275	16764	6.6	0
275	16764	6.7	0
275	16764	6.8	0
275	16764	6.9	0
275	16764	7	0
275	16764	7.1	0
275	16764	7.2	0
275	16764	7.3	0
275	16764	7.4	0
275	16764	7.5	0
275	16764	7.6	0
275	16764	7.7	0
275	16764	7.8	0
275	16764	7.9	0
275	16764	8	0
275	16764	8.1	0
275	16764	8.2	0
275	16764	8.3	0
275	16764	8.4	0
275	16764	8.5	0
275	16764	8.6	0
275	16764	8.7	0
275	16764	8.8	0
275	16764	8.9	0
275	16764	9	0
275	16764	9.1	0
275	16764	9.2	0
275	16764	9.3	0
275	16764	9.4	0
275	16764	9.5	0
275	16764	9.6	0
275	16764	9.7	0
275	16764	9.8	0
275	16764	9.9	0
275	16764	10	0
275	16764	10.1	0
275	16764	10.2	0
275	16764	10.3	0
275	16764	10.4	0
275	16764	10.5	0
275	16764	10.6	0
275	16764	10.7	0
275	16764	10.8	0
275	16764	10.9	0
275	16764	11	0
275	16764	11.1	0
275	16764	11.2	0
275	16764	11.3	0
275	16764	11.4	0
275	16764	11.5	0
275	16764	11.6	0
275	16764	11.7	0
275	16764	11.8	0
275	16764	11.9	0
275	16764	12	0
275	16764	12.1	0
275	16764	12.2	0
275	16764	12.3	0
275	16764	12.4	0
275	16764	12.5	0
275	16764	12.6	0
275	16764	12.7	0
275	16764	12.8	0
275	16764	12.9	0
275	16764	13	0
275	16764	13.1	0
275	16764	13.2	0
275	16764	13.3	0
275	16764	13.4	0
275	16764	13.5	0
275	16764	13.6	0
275	16764	13.7	0
275	16764	13.8	0
275	16764	13.9	0
275	16764	14	0
275	16764	14.1	0
275	16764	14.2	0
275	16764	14.3	0
275	16764	14.4	0
275	16764	14.5	0
275	16764	14.6	0
275	16764	14.7	0
275	16764	14.8	0
275	16764	14.9	0
275	16764	15	0
275	16764	15.1	0
275	16764	15.2	0
275	16764	15.3	0
275	16764	15.4	0
275	16764	15.5	0
275	16764	15.6	0
275	16764	15.7	0
275	16764	15.8	0
275	16764	15.9	0
275	16764	16	0
275	16764	16.1	0
275	16764	16.2	0
275	16764	16.3	0
275	16764	16.4	0
275	16764	16.5	0
275	16764	16.6	0
275	16764	16.7	0
275	16764	16.8	0
275	16764	16.9	0
275	16764	17	0
275	16764	17.1	0
275	16764	17.2	0
275	16764	17.3	0
275	16764	17.4	0
275	16764	17.5	0
275	16764	17.6	0
275	16764	17.7	0
275	16764	17.8	0
275	16764	17.9	0
275	16764	18	0
275	16764	18.1	0
275	16764	18.2	0
275	16764	18.3	0
275	16764	18.4	0
275	16764	18.5	0
275	16764	18.6	0
275	16764	18.7	0
275	16764	18.8	0
275	16764	18.9	0
275	16764	19	0
275	16764	19.1	0
275	16764	19.2	0
275	16764	19.3	0
275	16764	19.4	0
275	16764	19.5	0
275	16764	19.6	0
275	16764	19.7	0
275	16764	19.8	0
275	16764	19.9	0
275	16764	20	0
275	16764	20.1	0
275	16764	20.2	0
275	16764	20.3	0
275	16764	20.4	0
275	16764	20.5	0
275	16764	20.6	0
275	16764	20.7	0
275	16764	20.8	0
275	16764	20.9	0
275	16764	21	0
275	16764	21.1	0
275	16764	21.2	0
275	16764	21.3	0
275	16764	21.4	0
275	16764	21.5	0
275	16764	21.6	0
275	16764	21.7	0
275	16764	21.8	0
275	16764	21.9	0
275	16764	22	0
275	16764	22.1	0
275	16764	22.2	0
275	16764	22.3	0
275	16764	22.4	0
275	16764	22.5	0
275	16764	22.6	0
275	16764	22.7	0
275	16764	22.8	0
275	16764	22.9	0
275	16764	23	0
275	16764	23.1	0
275	16764	23.2	0
275	16764	23.3	0
275	16764	23.4	0
275	16764	23.5	0
275	16764	23.6	0
275	16764	23.7	0
275	16764	23.8	0
275	16764	23.9	0
275	16764	24	0
275	16764	24.1	0
275	16764	24.2	0
275	16764	24.3	0
275	16764	24.4	0
275	16764	24.5	0
275	16764	24.6	0
275	16764	24.7	0
275	16764	24.8	0
275	16764	24.9	0
275	16764	25	0
275	16764	25.1	0
275	16764	25.2	0
275	16764	25.3	0
275	16764	25.4	0
275	16764	25.5	0
275	16764	25.6	0
275	16764	25.7	0
275	16764	25.8	0
275	16764	25.9	0
275	16764	26	0
275	16764	26.1	0
275	16764	26.2	0
275	16764	26.3	0
275	16764	26.4	0
275	16764	26.5	0
275	16764	26.6	0
275	16764	26.7	0
275	16764	26.8	0
275	16764	26.9	0
275	16764	27	0
275	16764	27.1	0
275	16764	27.2	0
275	16764	27.3	0
275	16764	27.4	0
275	16764	27.5	0
275	16764	27.6	0
275	16764	27.7	0
275	16764	27.8	0
275	16764	27.9	0
275	16764	28	0
275	16764	28.1	0
275	16764	28.2	0
275	16764	28.3	0
275	16764	28.4	0
275	16764	28.5	0
275	16764	28.6	0
275	16764	28.7	0
275	16764	28.8	0
275	16764	28.9	0
275	16764	29	0
275	16764	29.1	0
275	16764	29.2	0
275	16764	29.3	0
275	16764	29.4	0
275	16764	29.5	0
275	16764	29.6	0
275	16764	29.7	0
275	16764	29.8	0
275	16764	29.9	0
275	16764	30	0
275	16764	30.1	0
275	16764	30.2	0
275	16764	30.3	0
275	16764	30.4	0
275	16764	30.5	0
275	16764	30.6	0
275	16764	30.7	0
275	16764	30.8	0
275	16764	30.9	0
275	16764	31	0
275	16764	31.1	0
275	16764	31.2	0
275	16764	31.3	0
275	16764	31.4	0
275	16764	31.5	0
275	16764	31.6	0
275	16764	31.7	0
275	16764	31.8	0
275	16764	31.9	0
275	16764	32	0
275	16764	32.1	0
275	16764	32.2	0
275	16764	32.3	0
275	16764	32.4	0
275	16764	32.5	0
275	16764	32.6	0
275	16764	32.7	0
275	16764	32.8	0
275	16764	32.9	0
275	16764	33	0
275	16764	33.1	0
275	16764	33.2	0
275	16764	33.3	0
275	16764	33.4	0
275	16764	33.5	0
275	16764	33.6	0
275	16764	33.7	0
275	16764	33.8	0
275	16764	33.9	0
275	16764	34	0
275	16764	34.1	0
275	16764	34.2	0
275	16764	34.3	0
275	16764	34.4	0
275	16764	34.5	0
275	16764	34.6	0
275	16764	34.7	0
275	16764	34.8	0
275	16764	34.9	0
275	16764	35	0
275	16764	35.1	0
275	16764	35.2	0
275	16764	35.3	0
275	16764	35.4	0
275	16764	35.5	0
275	16764	35.6	0
275	16764	35.7	0
275	16764	35.8	0
275	16764	35.9	0
275	16764	36	0
275	16764	36.1	0
275	16764	36.2	0
275	16764	36.3	0
275	16764	36.4	0
275	16764	36.5	0
275	16764	36.6	0
275	16764	36.7	0
275	16764	36.8	0
275	16764	36.9	0
275	16764	37	0
275	16764	37.1	0
275	16764	37.2	0
275	16764	37.3	0
275	16764	37.4	0
275	16764	37.5	0
275	16764	37.6	0
275	16764	37.7	0
275	16764	37.8	0
275	16764	37.9	0
275	16764	38	0
275	16764	38.1	0
275	16764	38.2	0
275	16764	38.3	0
275	16764	38.4	0
275	16764	38.5	0
275	16764	38.6	0
275	16764	38.7	0
275	16764	38.8	0
275	16764	38.9	0
275	16764	39	0
275	16764	39.1	0
275	16764	39.2	0
275	16764	39.3	0
275	16764	39.4	0
275	16764	39.5	0
275	16764	39.6	0
275	16764	39.7	0
275	16764	39.8	0
275	16764	39.9	0
275	16764	40	0
275	16764	40.1	0
275	16764	40.2	0
275	16764	40.3	0
275	16764	40.4	0
275	16764	40.5	0
275	16764	40.6	0
275	16764	40.7	0
275	16764	40.8	0
275	16764	40.9	0
275	16764	41	0
275	16764	41.1	0
275	16764	41.2	0
275	16764	41.3	0
275	16764	41.4	0
275	16764	41.5	0
275	16764	41.6	0
275	16764	41.7	0
275	16764	41.8	0
275	16764	41.9	0
275	16764	42	0
275	16764	42.1	0
275	16764	42.2	0
275	16764	42.3	0
275	16764	42.4	0
275	16764	42.5	0
275	16764	42.6	0
275	16764	42.7	0
275	16764	42.8	0
275	16764	42.9	0
275	16764	43	0
275	16764	43.1	0
275	16764	43.2	0
275	16764	43.3	0
275	16764	43.4	0
275	16764	43.5	0
275	16764	43.6	0
275	16764	43.7	0
275	16764	43.8	0
275	16764	43.9	0
275	16764	44	0
275	16764	44.1	0
275	16764	44.2	0
275	16764	44.3	0
275	16764	44.4	0
275	16764	44.5	0
275	16764	44.6	0
275	16764	44.7	0
275	16764	44.8	0
275	16764	44.9	0
275	16764	45	0
275	16764	45.1	0
275	16764	45.2	0
275	16764	45.3	0
275	16764	45.4	0
275	16764	45.5	0
275	16764	45.6	0
275	16764	45.7	0
275	16764	45.8	0
275	16764	45.9	0
275	16764	46	0
275	16764	46.1	0
275	16764	46.2	0
275	16764	46.3	0
275	16764	46.4	0
275	16764	46.5	0
275	16764	46.6	0
275	16764	46.7	0
275	16764	46.8	0
275	16764	46.9	0
275	16764	47	0
275	16764	47.1	0
275	16764	47.2	0
275	16764	47.3	0
275	16764	47.4	0
275	16764	47.5	0
275	16764	47.557467959423	0

