file 5430741 1701309219                                         
version 3
run Wifi-Farm-100-4U-8O-0-20231130-01:47:40-1927
attr configname Wifi-Farm-100-4U-8O
attr datetime 20231130-01:47:40
attr datetimef 20231130-014740
attr experiment Wifi-Farm-100-4U-8O
attr inifile omnetpp.ini
attr iterationvars ""
attr iterationvarsd ""
attr iterationvarsf ""
attr measurement ""
attr network GradysNetwork
attr processid 1927
attr repetition 0
attr replication #0
attr resultdir results
attr runnumber 0
attr seedset 0
config image-path ../../../../../../workspace/inet4.5/images
config extends Wifi
config description "Simulation with four drones with wifi radio only in a 100ha farm with 8 oxen"
config *.numUAVs 4
config *.numSensors 8
config *.quads[*].protocol.typename QuadrantDroneProtocol
config *.quads[*].protocol.timeoutDuration 5s
config *.quads[0].app[*].startTime "normal(1s, 1s)"
config *.quads[1].app[*].startTime "normal(10s, 1s)"
config *.quads[2].app[*].startTime "normal(20s, 1s)"
config *.quads[3].app[*].startTime "normal(30s, 1s)"
config *.quads[0].app[0].destAddresses "\"quads[1] quads[2] quads[3] sensors[0] sensors[1] sensors[2] sensors[3] sensors[4] sensors[5] sensors[6] sensors[7] groundStation\""
config *.quads[1].app[0].destAddresses "\"quads[0] quads[2] quads[3] sensors[0] sensors[1] sensors[2] sensors[3] sensors[4] sensors[5] sensors[6] sensors[7] groundStation\""
config *.quads[2].app[0].destAddresses "\"quads[0] quads[1] quads[3] sensors[0] sensors[1] sensors[2] sensors[3] sensors[4] sensors[5] sensors[6] sensors[7] groundStation\""
config *.quads[3].app[0].destAddresses "\"quads[1] quads[2] quads[0] sensors[0] sensors[1] sensors[2] sensors[3] sensors[4] sensors[5] sensors[6] sensors[7] groundStation\""
config *.quads[0].mobility.startTime 2s
config *.quads[1].mobility.startTime 4s
config *.quads[2].mobility.startTime 6s
config *.quads[3].mobility.startTime 0s
config *.quads[0].mobility.waypointFile "\"paths/farm-100ha-drone-A.waypoints\""
config *.quads[1].mobility.waypointFile "\"paths/farm-100ha-drone-B.waypoints\""
config *.quads[2].mobility.waypointFile "\"paths/farm-100ha-drone-C.waypoints\""
config *.quads[3].mobility.waypointFile "\"paths/farm-100ha-fence.waypoints\""
config *.quads[*].numFailures 0
config *.sensors[0..7].protocol.typename QuadrantSensorProtocol
config *.sensors[*].app[0].destAddresses "\"quads[0] quads[1] quads[2] quads[3]\""
config *.groundStation.protocol.typename QuadrantGroundProtocol
config *.groundStation.app[0].destAddresses "\"quads[0] quads[1] quads[2] quads[3]\""
config network GradysNetwork
config description "Configure quads, ground stations and sensors for wifi only communication"
config *.quads[*].numApps 1
config *.quads[*].app[0].typename UdpCommunicationApp
config *.quads[*].app[0].localPort 1000
config *.quads[*].app[0].destPort 1000
config *.quads[*].app[0].sendInterval 1s
config *.quads[*].app[0].startTime 1s
config *.quads[*].app[0].stopTime -1s
config *.quads[*].app[0].messageLength 1454Byte
config *.quads[*].protocol.typename QuadrantDroneProtocol
config *.quads[*].mobility.typename DroneMobility
config *.quads[*].mobility.coordinateSystemModule "\"coordinateSystem\""
config *.quads[*].mobility.waypointProximity 1m
config *.quads[*].mobility.speed 10mps
config *.quads[*].mobility.homeLongitude -48.097798deg
config *.quads[*].mobility.homeLatitude -15.630554deg
config *.quads[*].mobility.waypointFile "\"paths/farm-100ha-fence.waypoints\""
config *.groundStation.numApps 1
config *.groundStation.app[0].typename UdpCommunicationApp
config *.groundStation.app[0].destPort 1000
config *.groundStation.app[0].localPort 1000
config *.groundStation.app[0].sendInterval 1s
config *.groundStation.app[0].messageLength 1454Byte
config *.groundStation.app[0].startTime 1s
config *.groundStation.protocol.typename QuadrantGroundProtocol
config *.groundStation.mobility.typename StationaryMobility
config *.groundStation.mobility.coordinateSystemModule "\"coordinateSystem\""
config *.groundStation.mobility.initialAltitude 0m
config *.groundStation.mobility.initialLatitude -15.630554deg
config *.groundStation.mobility.initialLongitude -48.097798deg
config *.numSensors 8
config *.sensors[*].numApps 1
config *.sensors[*].app[0].typename UdpCommunicationApp
config *.sensors[*].app[0].destPort 1000
config *.sensors[*].app[0].localPort 1000
config *.sensors[*].app[0].sendInterval 2s
config *.sensors[*].app[0].startTime exponential(1s)
config *.sensors[*].app[0].messageLength 1454Byte
config *.sensors[0..2].protocol.typename QuadrantSensorProtocol
config *.sensors[*].mobility.typename LinearMobility
config *.sensors[*].mobility.coordinateSystemModule "\"coordinateSystem\""
config *.sensors[*].mobility.constraintAreaMinX 10m
config *.sensors[*].mobility.constraintAreaMinY 10m
config *.sensors[*].mobility.constraintAreaMinZ 0m
config *.sensors[*].mobility.constraintAreaMaxX 150m
config *.sensors[*].mobility.constraintAreaMaxY 150m
config *.sensors[*].mobility.constraintAreaMaxZ 0m
config *.sensors[*].mobility.speed 5mps
config *.sensors[*].mobility.initialMovementHeading 10deg
config description "Setup visualisation, scene origin, sensors"
config cmdenv-status-frequency 10s
config cmdenv-output-file results/0.out
config allow-object-stealing-on-deletion true
config *.visualizer.osgVisualizer.typename IntegratedOsgVisualizer
config *.visualizer.osgVisualizer.sceneVisualizer.typename SceneOsgEarthVisualizer
config *.visualizer.osgVisualizer.sceneVisualizer.mapFile "\"map.earth\""
config *.visualizer.*.sceneVisualizer.sceneImageSize 100000m
config *.visualizer.*.sceneVisualizer.sceneMinX -1000m
config *.visualizer.*.sceneVisualizer.sceneMinY -1000m
config *.visualizer.*.sceneVisualizer.sceneMinZ -1000m
config *.visualizer.*.sceneVisualizer.sceneMaxX 1000m
config *.visualizer.*.sceneVisualizer.sceneMaxY 1000m
config *.visualizer.*.sceneVisualizer.sceneMaxZ 1000m
config *.visualizer.*.physicalLinkVisualizer.lineShift 0
config *.visualizer.*.dataLinkVisualizer.lineShift 0
config *.visualizer.*.networkRouteVisualizer.lineShift 0
config *.visualizer.*.networkNodeVisualizer.displayModuleName true
config *.visualizer.*.statisticVisualizer.signalName "\"dataLoad\""
config *.visualizer.*.statisticVisualizer.format "\"(%v)\""
config *.visualizer.*.statisticVisualizer.textColor "\"red\""
config *.visualizer.*.statisticVisualizer.font "\"Courier New, 12px, bold\""
config *.visualizer.*.statisticVisualizer.opacity 1
config *.visualizer.*.mobilityVisualizer.displayMobility true
config *.visualizer.*.mobilityVisualizer.displayPositions true
config *.visualizer.*.mobilityVisualizer.displayOrientations true
config *.visualizer.*.mobilityVisualizer.displayVelocities true
config *.visualizer.*.mobilityVisualizer.displayMovementTrails true
config *.visualizer.*.mobilityVisualizer.animationSpeed 10
config *.environment.ground.typename FlatGround
config *.quads[*].osgModel "\"3d/drone.ive.10.scale.0,0,90.rot\""
config **.mobility.initFromDisplayString false
config *.coordinateSystem.sceneLongitude -48.09779867095303deg
config *.coordinateSystem.sceneLatitude -15.630554093095277deg
config *.coordinateSystem.sceneHeading 0deg
config *.*[*].mobility.constraintAreaMinX -1000m
config *.*[*].mobility.constraintAreaMinY -1000m
config *.*[*].mobility.constraintAreaMinZ -1000m
config *.*[*].mobility.constraintAreaMaxX 1000m
config *.*[*].mobility.constraintAreaMaxY 1000m
config *.*[*].mobility.constraintAreaMaxZ 1000m
config *.*[*].wlan[*].radio.displayCommunicationRange true
config *.*[*].wlan[0].radio.displayInterferenceRange false
config *.sensor*.wlan[0].radio.energyConsumer.typename SensorStateBasedEpEnergyConsumer
config *.sensor*.wlan[0].radio.energyConsumer.offPowerConsumption 0mW
config *.sensor*.wlan[0].radio.energyConsumer.sleepPowerConsumption 1mW
config *.sensor*.wlan[0].radio.energyConsumer.switchingPowerConsumption 1mW
config *.sensor*.wlan[0].radio.energyConsumer.receiverIdlePowerConsumption 2mW
config *.sensor*.wlan[0].radio.energyConsumer.receiverBusyPowerConsumption 5mW
config *.sensor*.wlan[0].radio.energyConsumer.receiverReceivingPowerConsumption 10mW
config *.sensor*.wlan[0].radio.energyConsumer.transmitterIdlePowerConsumption 2mW
config *.sensor*.wlan[0].radio.energyConsumer.transmitterTransmittingPowerConsumption 100mW
config *.sensor*.energyStorage.typename IdealEpEnergyStorage
config *.farm.app[0].typename UdpCommunicationApp
config *.farm.app[0].localPort 1000
config *.farm.app[0].destPort 1000
config *.farm.app[0].sendInterval 1s
config *.farm.app[0].startTime 1s
config *.farm.app[0].stopTime -1s
config *.farm.app[0].messageLength 1454Byte
config *.farm.mobility.coordinateSystemModule "\"coordinateSystem\""
config *.farm.mobility.initialAltitude 0m
config *.farm.mobility.initialLatitude -15.630554deg
config *.farm.mobility.initialLongitude -48.097798deg

vector 0 GradysNetwork.quads[0].wlan[0].mac.dcf frameSequenceActive:vector ETV
attr autoWarmupFilter false
attr interpolationmode sample-hold
attr recordingmode vector
attr source warmup(count(frameSequenceStarted)-count(frameSequenceFinished))
attr title "frame sequence active"
vector 1 GradysNetwork.quads[0].wlan[0].mac.dcf.channelAccess.inProgressFrames queueLength:vector ETV
attr autoWarmupFilter false
attr interpolationmode sample-hold
attr recordingmode vector
attr source "warmup(count(packetEnqueued) - count(packetDequeued))"
attr title "queue length"
vector 2 GradysNetwork.quads[0].wlan[0].mac.dcf.channelAccess.contention backoffActive:vector ETV
attr autoWarmupFilter false
attr interpolationmode sample-hold
attr recordingmode vector
attr source warmup(count(backoffStarted)-count(backoffStopped))
attr title "backoff active"
vector 3 GradysNetwork.quads[0].udp passedUpPk:vector(count) ETV
attr interpolationmode none
attr recordingmode vector(count)
attr source packetSentToUpper
attr title "packets passed up, count"
vector 4 GradysNetwork.quads[0].udp droppedPkWrongPort:vector(count) ETV
attr interpolationmode none
attr recordingmode vector(count)
attr source packetDropReasonIsNoPortFound(packetDropped)
attr title "packets dropped (wrong port), count"
vector 5 GradysNetwork.quads[0].udp droppedPkBadChecksum:vector(count) ETV
attr interpolationmode none
attr recordingmode vector(count)
attr source packetDropReasonIsIncorrectlyReceived(packetDropped)
attr title "packets dropped (checksum error), count"
vector 6 GradysNetwork.quads[1].wlan[0].mac.dcf frameSequenceActive:vector ETV
attr autoWarmupFilter false
attr interpolationmode sample-hold
attr recordingmode vector
attr source warmup(count(frameSequenceStarted)-count(frameSequenceFinished))
attr title "frame sequence active"
vector 7 GradysNetwork.quads[1].wlan[0].mac.dcf.channelAccess.inProgressFrames queueLength:vector ETV
attr autoWarmupFilter false
attr interpolationmode sample-hold
attr recordingmode vector
attr source "warmup(count(packetEnqueued) - count(packetDequeued))"
attr title "queue length"
vector 8 GradysNetwork.quads[1].wlan[0].mac.dcf.channelAccess.contention backoffActive:vector ETV
attr autoWarmupFilter false
attr interpolationmode sample-hold
attr recordingmode vector
attr source warmup(count(backoffStarted)-count(backoffStopped))
attr title "backoff active"
vector 9 GradysNetwork.quads[1].udp passedUpPk:vector(count) ETV
attr interpolationmode none
attr recordingmode vector(count)
attr source packetSentToUpper
attr title "packets passed up, count"
vector 10 GradysNetwork.quads[1].udp droppedPkWrongPort:vector(count) ETV
attr interpolationmode none
attr recordingmode vector(count)
attr source packetDropReasonIsNoPortFound(packetDropped)
attr title "packets dropped (wrong port), count"
vector 11 GradysNetwork.quads[1].udp droppedPkBadChecksum:vector(count) ETV
attr interpolationmode none
attr recordingmode vector(count)
attr source packetDropReasonIsIncorrectlyReceived(packetDropped)
attr title "packets dropped (checksum error), count"
vector 12 GradysNetwork.quads[2].wlan[0].mac.dcf frameSequenceActive:vector ETV
attr autoWarmupFilter false
attr interpolationmode sample-hold
attr recordingmode vector
attr source warmup(count(frameSequenceStarted)-count(frameSequenceFinished))
attr title "frame sequence active"
vector 13 GradysNetwork.quads[2].wlan[0].mac.dcf.channelAccess.inProgressFrames queueLength:vector ETV
attr autoWarmupFilter false
attr interpolationmode sample-hold
attr recordingmode vector
attr source "warmup(count(packetEnqueued) - count(packetDequeued))"
attr title "queue length"
vector 14 GradysNetwork.quads[2].wlan[0].mac.dcf.channelAccess.contention backoffActive:vector ETV
attr autoWarmupFilter false
attr interpolationmode sample-hold
attr recordingmode vector
attr source warmup(count(backoffStarted)-count(backoffStopped))
attr title "backoff active"
vector 15 GradysNetwork.quads[2].udp passedUpPk:vector(count) ETV
attr interpolationmode none
attr recordingmode vector(count)
attr source packetSentToUpper
attr title "packets passed up, count"
vector 16 GradysNetwork.quads[2].udp droppedPkWrongPort:vector(count) ETV
attr interpolationmode none
attr recordingmode vector(count)
attr source packetDropReasonIsNoPortFound(packetDropped)
attr title "packets dropped (wrong port), count"
vector 17 GradysNetwork.quads[2].udp droppedPkBadChecksum:vector(count) ETV
attr interpolationmode none
attr recordingmode vector(count)
attr source packetDropReasonIsIncorrectlyReceived(packetDropped)
attr title "packets dropped (checksum error), count"
vector 18 GradysNetwork.quads[3].wlan[0].mac.dcf frameSequenceActive:vector ETV
attr autoWarmupFilter false
attr interpolationmode sample-hold
attr recordingmode vector
attr source warmup(count(frameSequenceStarted)-count(frameSequenceFinished))
attr title "frame sequence active"
vector 19 GradysNetwork.quads[3].wlan[0].mac.dcf.channelAccess.inProgressFrames queueLength:vector ETV
attr autoWarmupFilter false
attr interpolationmode sample-hold
attr recordingmode vector
attr source "warmup(count(packetEnqueued) - count(packetDequeued))"
attr title "queue length"
vector 20 GradysNetwork.quads[3].wlan[0].mac.dcf.channelAccess.contention backoffActive:vector ETV
attr autoWarmupFilter false
attr interpolationmode sample-hold
attr recordingmode vector
attr source warmup(count(backoffStarted)-count(backoffStopped))
attr title "backoff active"
vector 21 GradysNetwork.quads[3].udp passedUpPk:vector(count) ETV
attr interpolationmode none
attr recordingmode vector(count)
attr source packetSentToUpper
attr title "packets passed up, count"
vector 22 GradysNetwork.quads[3].udp droppedPkWrongPort:vector(count) ETV
attr interpolationmode none
attr recordingmode vector(count)
attr source packetDropReasonIsNoPortFound(packetDropped)
attr title "packets dropped (wrong port), count"
vector 23 GradysNetwork.quads[3].udp droppedPkBadChecksum:vector(count) ETV
attr interpolationmode none
attr recordingmode vector(count)
attr source packetDropReasonIsIncorrectlyReceived(packetDropped)
attr title "packets dropped (checksum error), count"
vector 24 GradysNetwork.sensors[0].wlan[0].mac.dcf frameSequenceActive:vector ETV
attr autoWarmupFilter false
attr interpolationmode sample-hold
attr recordingmode vector
attr source warmup(count(frameSequenceStarted)-count(frameSequenceFinished))
attr title "frame sequence active"
vector 25 GradysNetwork.sensors[0].wlan[0].mac.dcf.channelAccess.inProgressFrames queueLength:vector ETV
attr autoWarmupFilter false
attr interpolationmode sample-hold
attr recordingmode vector
attr source "warmup(count(packetEnqueued) - count(packetDequeued))"
attr title "queue length"
vector 26 GradysNetwork.sensors[0].wlan[0].mac.dcf.channelAccess.contention backoffActive:vector ETV
attr autoWarmupFilter false
attr interpolationmode sample-hold
attr recordingmode vector
attr source warmup(count(backoffStarted)-count(backoffStopped))
attr title "backoff active"
vector 27 GradysNetwork.sensors[0].udp passedUpPk:vector(count) ETV
attr interpolationmode none
attr recordingmode vector(count)
attr source packetSentToUpper
attr title "packets passed up, count"
vector 28 GradysNetwork.sensors[0].udp droppedPkWrongPort:vector(count) ETV
attr interpolationmode none
attr recordingmode vector(count)
attr source packetDropReasonIsNoPortFound(packetDropped)
attr title "packets dropped (wrong port), count"
vector 29 GradysNetwork.sensors[0].udp droppedPkBadChecksum:vector(count) ETV
attr interpolationmode none
attr recordingmode vector(count)
attr source packetDropReasonIsIncorrectlyReceived(packetDropped)
attr title "packets dropped (checksum error), count"
vector 30 GradysNetwork.sensors[1].wlan[0].mac.dcf frameSequenceActive:vector ETV
attr autoWarmupFilter false
attr interpolationmode sample-hold
attr recordingmode vector
attr source warmup(count(frameSequenceStarted)-count(frameSequenceFinished))
attr title "frame sequence active"
vector 31 GradysNetwork.sensors[1].wlan[0].mac.dcf.channelAccess.inProgressFrames queueLength:vector ETV
attr autoWarmupFilter false
attr interpolationmode sample-hold
attr recordingmode vector
attr source "warmup(count(packetEnqueued) - count(packetDequeued))"
attr title "queue length"
vector 32 GradysNetwork.sensors[1].wlan[0].mac.dcf.channelAccess.contention backoffActive:vector ETV
attr autoWarmupFilter false
attr interpolationmode sample-hold
attr recordingmode vector
attr source warmup(count(backoffStarted)-count(backoffStopped))
attr title "backoff active"
vector 33 GradysNetwork.sensors[1].udp passedUpPk:vector(count) ETV
attr interpolationmode none
attr recordingmode vector(count)
attr source packetSentToUpper
attr title "packets passed up, count"
vector 34 GradysNetwork.sensors[1].udp droppedPkWrongPort:vector(count) ETV
attr interpolationmode none
attr recordingmode vector(count)
attr source packetDropReasonIsNoPortFound(packetDropped)
attr title "packets dropped (wrong port), count"
vector 35 GradysNetwork.sensors[1].udp droppedPkBadChecksum:vector(count) ETV
attr interpolationmode none
attr recordingmode vector(count)
attr source packetDropReasonIsIncorrectlyReceived(packetDropped)
attr title "packets dropped (checksum error), count"
vector 36 GradysNetwork.sensors[2].wlan[0].mac.dcf frameSequenceActive:vector ETV
attr autoWarmupFilter false
attr interpolationmode sample-hold
attr recordingmode vector
attr source warmup(count(frameSequenceStarted)-count(frameSequenceFinished))
attr title "frame sequence active"
vector 37 GradysNetwork.sensors[2].wlan[0].mac.dcf.channelAccess.inProgressFrames queueLength:vector ETV
attr autoWarmupFilter false
attr interpolationmode sample-hold
attr recordingmode vector
attr source "warmup(count(packetEnqueued) - count(packetDequeued))"
attr title "queue length"
vector 38 GradysNetwork.sensors[2].wlan[0].mac.dcf.channelAccess.contention backoffActive:vector ETV
attr autoWarmupFilter false
attr interpolationmode sample-hold
attr recordingmode vector
attr source warmup(count(backoffStarted)-count(backoffStopped))
attr title "backoff active"
vector 39 GradysNetwork.sensors[2].udp passedUpPk:vector(count) ETV
attr interpolationmode none
attr recordingmode vector(count)
attr source packetSentToUpper
attr title "packets passed up, count"
vector 40 GradysNetwork.sensors[2].udp droppedPkWrongPort:vector(count) ETV
attr interpolationmode none
attr recordingmode vector(count)
attr source packetDropReasonIsNoPortFound(packetDropped)
attr title "packets dropped (wrong port), count"
vector 41 GradysNetwork.sensors[2].udp droppedPkBadChecksum:vector(count) ETV
attr interpolationmode none
attr recordingmode vector(count)
attr source packetDropReasonIsIncorrectlyReceived(packetDropped)
attr title "packets dropped (checksum error), count"
vector 42 GradysNetwork.sensors[3].wlan[0].mac.dcf frameSequenceActive:vector ETV
attr autoWarmupFilter false
attr interpolationmode sample-hold
attr recordingmode vector
attr source warmup(count(frameSequenceStarted)-count(frameSequenceFinished))
attr title "frame sequence active"
vector 43 GradysNetwork.sensors[3].wlan[0].mac.dcf.channelAccess.inProgressFrames queueLength:vector ETV
attr autoWarmupFilter false
attr interpolationmode sample-hold
attr recordingmode vector
attr source "warmup(count(packetEnqueued) - count(packetDequeued))"
attr title "queue length"
vector 44 GradysNetwork.sensors[3].wlan[0].mac.dcf.channelAccess.contention backoffActive:vector ETV
attr autoWarmupFilter false
attr interpolationmode sample-hold
attr recordingmode vector
attr source warmup(count(backoffStarted)-count(backoffStopped))
attr title "backoff active"
vector 45 GradysNetwork.sensors[3].udp passedUpPk:vector(count) ETV
attr interpolationmode none
attr recordingmode vector(count)
attr source packetSentToUpper
attr title "packets passed up, count"
vector 46 GradysNetwork.sensors[3].udp droppedPkWrongPort:vector(count) ETV
attr interpolationmode none
attr recordingmode vector(count)
attr source packetDropReasonIsNoPortFound(packetDropped)
attr title "packets dropped (wrong port), count"
vector 47 GradysNetwork.sensors[3].udp droppedPkBadChecksum:vector(count) ETV
attr interpolationmode none
attr recordingmode vector(count)
attr source packetDropReasonIsIncorrectlyReceived(packetDropped)
attr title "packets dropped (checksum error), count"
vector 48 GradysNetwork.sensors[4].wlan[0].mac.dcf frameSequenceActive:vector ETV
attr autoWarmupFilter false
attr interpolationmode sample-hold
attr recordingmode vector
attr source warmup(count(frameSequenceStarted)-count(frameSequenceFinished))
attr title "frame sequence active"
vector 49 GradysNetwork.sensors[4].wlan[0].mac.dcf.channelAccess.inProgressFrames queueLength:vector ETV
attr autoWarmupFilter false
attr interpolationmode sample-hold
attr recordingmode vector
attr source "warmup(count(packetEnqueued) - count(packetDequeued))"
attr title "queue length"
vector 50 GradysNetwork.sensors[4].wlan[0].mac.dcf.channelAccess.contention backoffActive:vector ETV
attr autoWarmupFilter false
attr interpolationmode sample-hold
attr recordingmode vector
attr source warmup(count(backoffStarted)-count(backoffStopped))
attr title "backoff active"
vector 51 GradysNetwork.sensors[4].udp passedUpPk:vector(count) ETV
attr interpolationmode none
attr recordingmode vector(count)
attr source packetSentToUpper
attr title "packets passed up, count"
vector 52 GradysNetwork.sensors[4].udp droppedPkWrongPort:vector(count) ETV
attr interpolationmode none
attr recordingmode vector(count)
attr source packetDropReasonIsNoPortFound(packetDropped)
attr title "packets dropped (wrong port), count"
vector 53 GradysNetwork.sensors[4].udp droppedPkBadChecksum:vector(count) ETV
attr interpolationmode none
attr recordingmode vector(count)
attr source packetDropReasonIsIncorrectlyReceived(packetDropped)
attr title "packets dropped (checksum error), count"
vector 54 GradysNetwork.sensors[5].wlan[0].mac.dcf frameSequenceActive:vector ETV
attr autoWarmupFilter false
attr interpolationmode sample-hold
attr recordingmode vector
attr source warmup(count(frameSequenceStarted)-count(frameSequenceFinished))
attr title "frame sequence active"
vector 55 GradysNetwork.sensors[5].wlan[0].mac.dcf.channelAccess.inProgressFrames queueLength:vector ETV
attr autoWarmupFilter false
attr interpolationmode sample-hold
attr recordingmode vector
attr source "warmup(count(packetEnqueued) - count(packetDequeued))"
attr title "queue length"
vector 56 GradysNetwork.sensors[5].wlan[0].mac.dcf.channelAccess.contention backoffActive:vector ETV
attr autoWarmupFilter false
attr interpolationmode sample-hold
attr recordingmode vector
attr source warmup(count(backoffStarted)-count(backoffStopped))
attr title "backoff active"
vector 57 GradysNetwork.sensors[5].udp passedUpPk:vector(count) ETV
attr interpolationmode none
attr recordingmode vector(count)
attr source packetSentToUpper
attr title "packets passed up, count"
vector 58 GradysNetwork.sensors[5].udp droppedPkWrongPort:vector(count) ETV
attr interpolationmode none
attr recordingmode vector(count)
attr source packetDropReasonIsNoPortFound(packetDropped)
attr title "packets dropped (wrong port), count"
vector 59 GradysNetwork.sensors[5].udp droppedPkBadChecksum:vector(count) ETV
attr interpolationmode none
attr recordingmode vector(count)
attr source packetDropReasonIsIncorrectlyReceived(packetDropped)
attr title "packets dropped (checksum error), count"
vector 60 GradysNetwork.sensors[6].wlan[0].mac.dcf frameSequenceActive:vector ETV
attr autoWarmupFilter false
attr interpolationmode sample-hold
attr recordingmode vector
attr source warmup(count(frameSequenceStarted)-count(frameSequenceFinished))
attr title "frame sequence active"
vector 61 GradysNetwork.sensors[6].wlan[0].mac.dcf.channelAccess.inProgressFrames queueLength:vector ETV
attr autoWarmupFilter false
attr interpolationmode sample-hold
attr recordingmode vector
attr source "warmup(count(packetEnqueued) - count(packetDequeued))"
attr title "queue length"
vector 62 GradysNetwork.sensors[6].wlan[0].mac.dcf.channelAccess.contention backoffActive:vector ETV
attr autoWarmupFilter false
attr interpolationmode sample-hold
attr recordingmode vector
attr source warmup(count(backoffStarted)-count(backoffStopped))
attr title "backoff active"
vector 63 GradysNetwork.sensors[6].udp passedUpPk:vector(count) ETV
attr interpolationmode none
attr recordingmode vector(count)
attr source packetSentToUpper
attr title "packets passed up, count"
vector 64 GradysNetwork.sensors[6].udp droppedPkWrongPort:vector(count) ETV
attr interpolationmode none
attr recordingmode vector(count)
attr source packetDropReasonIsNoPortFound(packetDropped)
attr title "packets dropped (wrong port), count"
vector 65 GradysNetwork.sensors[6].udp droppedPkBadChecksum:vector(count) ETV
attr interpolationmode none
attr recordingmode vector(count)
attr source packetDropReasonIsIncorrectlyReceived(packetDropped)
attr title "packets dropped (checksum error), count"
vector 66 GradysNetwork.sensors[7].wlan[0].mac.dcf frameSequenceActive:vector ETV
attr autoWarmupFilter false
attr interpolationmode sample-hold
attr recordingmode vector
attr source warmup(count(frameSequenceStarted)-count(frameSequenceFinished))
attr title "frame sequence active"
vector 67 GradysNetwork.sensors[7].wlan[0].mac.dcf.channelAccess.inProgressFrames queueLength:vector ETV
attr autoWarmupFilter false
attr interpolationmode sample-hold
attr recordingmode vector
attr source "warmup(count(packetEnqueued) - count(packetDequeued))"
attr title "queue length"
vector 68 GradysNetwork.sensors[7].wlan[0].mac.dcf.channelAccess.contention backoffActive:vector ETV
attr autoWarmupFilter false
attr interpolationmode sample-hold
attr recordingmode vector
attr source warmup(count(backoffStarted)-count(backoffStopped))
attr title "backoff active"
vector 69 GradysNetwork.sensors[7].udp passedUpPk:vector(count) ETV
attr interpolationmode none
attr recordingmode vector(count)
attr source packetSentToUpper
attr title "packets passed up, count"
vector 70 GradysNetwork.sensors[7].udp droppedPkWrongPort:vector(count) ETV
attr interpolationmode none
attr recordingmode vector(count)
attr source packetDropReasonIsNoPortFound(packetDropped)
attr title "packets dropped (wrong port), count"
vector 71 GradysNetwork.sensors[7].udp droppedPkBadChecksum:vector(count) ETV
attr interpolationmode none
attr recordingmode vector(count)
attr source packetDropReasonIsIncorrectlyReceived(packetDropped)
attr title "packets dropped (checksum error), count"
vector 72 GradysNetwork.groundStation.wlan[0].mac.dcf frameSequenceActive:vector ETV
attr autoWarmupFilter false
attr interpolationmode sample-hold
attr recordingmode vector
attr source warmup(count(frameSequenceStarted)-count(frameSequenceFinished))
attr title "frame sequence active"
vector 73 GradysNetwork.groundStation.wlan[0].mac.dcf.channelAccess.inProgressFrames queueLength:vector ETV
attr autoWarmupFilter false
attr interpolationmode sample-hold
attr recordingmode vector
attr source "warmup(count(packetEnqueued) - count(packetDequeued))"
attr title "queue length"
vector 74 GradysNetwork.groundStation.wlan[0].mac.dcf.channelAccess.contention backoffActive:vector ETV
attr autoWarmupFilter false
attr interpolationmode sample-hold
attr recordingmode vector
attr source warmup(count(backoffStarted)-count(backoffStopped))
attr title "backoff active"
vector 75 GradysNetwork.groundStation.udp passedUpPk:vector(count) ETV
attr interpolationmode none
attr recordingmode vector(count)
attr source packetSentToUpper
attr title "packets passed up, count"
vector 76 GradysNetwork.groundStation.udp droppedPkWrongPort:vector(count) ETV
attr interpolationmode none
attr recordingmode vector(count)
attr source packetDropReasonIsNoPortFound(packetDropped)
attr title "packets dropped (wrong port), count"
vector 77 GradysNetwork.groundStation.udp droppedPkBadChecksum:vector(count) ETV
attr interpolationmode none
attr recordingmode vector(count)
attr source packetDropReasonIsIncorrectlyReceived(packetDropped)
attr title "packets dropped (checksum error), count"
vector 78 GradysNetwork.farm.wlan[0].mac.dcf frameSequenceActive:vector ETV
attr autoWarmupFilter false
attr interpolationmode sample-hold
attr recordingmode vector
attr source warmup(count(frameSequenceStarted)-count(frameSequenceFinished))
attr title "frame sequence active"
vector 79 GradysNetwork.farm.wlan[0].mac.dcf.channelAccess.inProgressFrames queueLength:vector ETV
attr autoWarmupFilter false
attr interpolationmode sample-hold
attr recordingmode vector
attr source "warmup(count(packetEnqueued) - count(packetDequeued))"
attr title "queue length"
vector 80 GradysNetwork.farm.wlan[0].mac.dcf.channelAccess.contention backoffActive:vector ETV
attr autoWarmupFilter false
attr interpolationmode sample-hold
attr recordingmode vector
attr source warmup(count(backoffStarted)-count(backoffStopped))
attr title "backoff active"
vector 81 GradysNetwork.farm.udp passedUpPk:vector(count) ETV
attr interpolationmode none
attr recordingmode vector(count)
attr source packetSentToUpper
attr title "packets passed up, count"
vector 82 GradysNetwork.farm.udp droppedPkWrongPort:vector(count) ETV
attr interpolationmode none
attr recordingmode vector(count)
attr source packetDropReasonIsNoPortFound(packetDropped)
attr title "packets dropped (wrong port), count"
vector 83 GradysNetwork.farm.udp droppedPkBadChecksum:vector(count) ETV
attr interpolationmode none
attr recordingmode vector(count)
attr source packetDropReasonIsIncorrectlyReceived(packetDropped)
attr title "packets dropped (checksum error), count"
vector 84 GradysNetwork.sensors[0].energyStorage powerConsumption:vector ETV
attr interpolationmode sample-hold
attr recordingmode vector
attr source powerConsumptionChanged
attr title "Power consumption"
attr unit W
vector 85 GradysNetwork.sensors[1].energyStorage powerConsumption:vector ETV
attr interpolationmode sample-hold
attr recordingmode vector
attr source powerConsumptionChanged
attr title "Power consumption"
attr unit W
vector 86 GradysNetwork.sensors[2].energyStorage powerConsumption:vector ETV
attr interpolationmode sample-hold
attr recordingmode vector
attr source powerConsumptionChanged
attr title "Power consumption"
attr unit W
vector 87 GradysNetwork.sensors[3].energyStorage powerConsumption:vector ETV
attr interpolationmode sample-hold
attr recordingmode vector
attr source powerConsumptionChanged
attr title "Power consumption"
attr unit W
vector 88 GradysNetwork.sensors[4].energyStorage powerConsumption:vector ETV
attr interpolationmode sample-hold
attr recordingmode vector
attr source powerConsumptionChanged
attr title "Power consumption"
attr unit W
vector 89 GradysNetwork.sensors[5].energyStorage powerConsumption:vector ETV
attr interpolationmode sample-hold
attr recordingmode vector
attr source powerConsumptionChanged
attr title "Power consumption"
attr unit W
vector 90 GradysNetwork.sensors[6].energyStorage powerConsumption:vector ETV
attr interpolationmode sample-hold
attr recordingmode vector
attr source powerConsumptionChanged
attr title "Power consumption"
attr unit W
vector 91 GradysNetwork.sensors[7].energyStorage powerConsumption:vector ETV
attr interpolationmode sample-hold
attr recordingmode vector
attr source powerConsumptionChanged
attr title "Power consumption"
attr unit W
vector 92 GradysNetwork.quads[0].wlan[0].radio radioMode:vector ETV
attr interpolationmode sample-hold
attr recordingmode vector
attr source radioModeChanged
attr title "Radio mode"
vector 93 GradysNetwork.quads[0].wlan[0].radio radioChannel:vector ETV
attr interpolationmode sample-hold
attr recordingmode vector
attr source radioChannelChanged
attr title "Radio channel"
vector 94 GradysNetwork.quads[1].wlan[0].radio radioMode:vector ETV
attr interpolationmode sample-hold
attr recordingmode vector
attr source radioModeChanged
attr title "Radio mode"
vector 95 GradysNetwork.quads[1].wlan[0].radio radioChannel:vector ETV
attr interpolationmode sample-hold
attr recordingmode vector
attr source radioChannelChanged
attr title "Radio channel"
vector 96 GradysNetwork.quads[2].wlan[0].radio radioMode:vector ETV
attr interpolationmode sample-hold
attr recordingmode vector
attr source radioModeChanged
attr title "Radio mode"
vector 97 GradysNetwork.quads[2].wlan[0].radio radioChannel:vector ETV
attr interpolationmode sample-hold
attr recordingmode vector
attr source radioChannelChanged
attr title "Radio channel"
vector 98 GradysNetwork.quads[3].wlan[0].radio radioMode:vector ETV
attr interpolationmode sample-hold
attr recordingmode vector
attr source radioModeChanged
attr title "Radio mode"
vector 99 GradysNetwork.quads[3].wlan[0].radio radioChannel:vector ETV
attr interpolationmode sample-hold
attr recordingmode vector
attr source radioChannelChanged
attr title "Radio channel"
vector 100 GradysNetwork.sensors[0].wlan[0].radio radioMode:vector ETV
attr interpolationmode sample-hold
attr recordingmode vector
attr source radioModeChanged
attr title "Radio mode"
vector 101 GradysNetwork.sensors[0].wlan[0].radio.energyConsumer powerConsumption:vector ETV
attr interpolationmode sample-hold
attr recordingmode vector
attr source powerConsumptionChanged
attr title "Power consumption"
attr unit W
vector 102 GradysNetwork.sensors[0].wlan[0].radio radioChannel:vector ETV
attr interpolationmode sample-hold
attr recordingmode vector
attr source radioChannelChanged
attr title "Radio channel"
vector 103 GradysNetwork.sensors[1].wlan[0].radio radioMode:vector ETV
attr interpolationmode sample-hold
attr recordingmode vector
attr source radioModeChanged
attr title "Radio mode"
vector 104 GradysNetwork.sensors[1].wlan[0].radio.energyConsumer powerConsumption:vector ETV
attr interpolationmode sample-hold
attr recordingmode vector
attr source powerConsumptionChanged
attr title "Power consumption"
attr unit W
vector 105 GradysNetwork.sensors[1].wlan[0].radio radioChannel:vector ETV
attr interpolationmode sample-hold
attr recordingmode vector
attr source radioChannelChanged
attr title "Radio channel"
vector 106 GradysNetwork.sensors[2].wlan[0].radio radioMode:vector ETV
attr interpolationmode sample-hold
attr recordingmode vector
attr source radioModeChanged
attr title "Radio mode"
vector 107 GradysNetwork.sensors[2].wlan[0].radio.energyConsumer powerConsumption:vector ETV
attr interpolationmode sample-hold
attr recordingmode vector
attr source powerConsumptionChanged
attr title "Power consumption"
attr unit W
vector 108 GradysNetwork.sensors[2].wlan[0].radio radioChannel:vector ETV
attr interpolationmode sample-hold
attr recordingmode vector
attr source radioChannelChanged
attr title "Radio channel"
vector 109 GradysNetwork.sensors[3].wlan[0].radio radioMode:vector ETV
attr interpolationmode sample-hold
attr recordingmode vector
attr source radioModeChanged
attr title "Radio mode"
vector 110 GradysNetwork.sensors[3].wlan[0].radio.energyConsumer powerConsumption:vector ETV
attr interpolationmode sample-hold
attr recordingmode vector
attr source powerConsumptionChanged
attr title "Power consumption"
attr unit W
vector 111 GradysNetwork.sensors[3].wlan[0].radio radioChannel:vector ETV
attr interpolationmode sample-hold
attr recordingmode vector
attr source radioChannelChanged
attr title "Radio channel"
vector 112 GradysNetwork.sensors[4].wlan[0].radio radioMode:vector ETV
attr interpolationmode sample-hold
attr recordingmode vector
attr source radioModeChanged
attr title "Radio mode"
vector 113 GradysNetwork.sensors[4].wlan[0].radio.energyConsumer powerConsumption:vector ETV
attr interpolationmode sample-hold
attr recordingmode vector
attr source powerConsumptionChanged
attr title "Power consumption"
attr unit W
vector 114 GradysNetwork.sensors[4].wlan[0].radio radioChannel:vector ETV
attr interpolationmode sample-hold
attr recordingmode vector
attr source radioChannelChanged
attr title "Radio channel"
vector 115 GradysNetwork.sensors[5].wlan[0].radio radioMode:vector ETV
attr interpolationmode sample-hold
attr recordingmode vector
attr source radioModeChanged
attr title "Radio mode"
vector 116 GradysNetwork.sensors[5].wlan[0].radio.energyConsumer powerConsumption:vector ETV
attr interpolationmode sample-hold
attr recordingmode vector
attr source powerConsumptionChanged
attr title "Power consumption"
attr unit W
vector 117 GradysNetwork.sensors[5].wlan[0].radio radioChannel:vector ETV
attr interpolationmode sample-hold
attr recordingmode vector
attr source radioChannelChanged
attr title "Radio channel"
vector 118 GradysNetwork.sensors[6].wlan[0].radio radioMode:vector ETV
attr interpolationmode sample-hold
attr recordingmode vector
attr source radioModeChanged
attr title "Radio mode"
vector 119 GradysNetwork.sensors[6].wlan[0].radio.energyConsumer powerConsumption:vector ETV
attr interpolationmode sample-hold
attr recordingmode vector
attr source powerConsumptionChanged
attr title "Power consumption"
attr unit W
vector 120 GradysNetwork.sensors[6].wlan[0].radio radioChannel:vector ETV
attr interpolationmode sample-hold
attr recordingmode vector
attr source radioChannelChanged
attr title "Radio channel"
vector 121 GradysNetwork.sensors[7].wlan[0].radio radioMode:vector ETV
attr interpolationmode sample-hold
attr recordingmode vector
attr source radioModeChanged
attr title "Radio mode"
vector 122 GradysNetwork.sensors[7].wlan[0].radio.energyConsumer powerConsumption:vector ETV
attr interpolationmode sample-hold
attr recordingmode vector
attr source powerConsumptionChanged
attr title "Power consumption"
attr unit W
vector 123 GradysNetwork.sensors[7].wlan[0].radio radioChannel:vector ETV
attr interpolationmode sample-hold
attr recordingmode vector
attr source radioChannelChanged
attr title "Radio channel"
vector 124 GradysNetwork.groundStation.wlan[0].radio radioMode:vector ETV
attr interpolationmode sample-hold
attr recordingmode vector
attr source radioModeChanged
attr title "Radio mode"
vector 125 GradysNetwork.groundStation.wlan[0].radio radioChannel:vector ETV
attr interpolationmode sample-hold
attr recordingmode vector
attr source radioChannelChanged
attr title "Radio channel"
vector 126 GradysNetwork.farm.wlan[0].radio radioMode:vector ETV
attr interpolationmode sample-hold
attr recordingmode vector
attr source radioModeChanged
attr title "Radio mode"
vector 127 GradysNetwork.farm.wlan[0].radio radioChannel:vector ETV
attr interpolationmode sample-hold
attr recordingmode vector
attr source radioChannelChanged
attr title "Radio channel"
vector 128 GradysNetwork.quads[0].wlan[0].radio receptionState:vector ETV
attr interpolationmode sample-hold
attr recordingmode vector
attr source receptionStateChanged
attr title "Radio reception state"
vector 129 GradysNetwork.quads[0].wlan[0].mac.dcf.channelAccess.contention stateChanged:vector ETV
attr enum IDLE,DEFER,IFS_AND_BACKOFF
attr interpolationmode none
attr recordingmode vector
attr title "contention state changed"
attr type enum
vector 130 GradysNetwork.quads[1].wlan[0].radio receptionState:vector ETV
attr interpolationmode sample-hold
attr recordingmode vector
attr source receptionStateChanged
attr title "Radio reception state"
vector 131 GradysNetwork.quads[1].wlan[0].mac.dcf.channelAccess.contention stateChanged:vector ETV
attr enum IDLE,DEFER,IFS_AND_BACKOFF
attr interpolationmode none
attr recordingmode vector
attr title "contention state changed"
attr type enum
vector 132 GradysNetwork.quads[2].wlan[0].radio receptionState:vector ETV
attr interpolationmode sample-hold
attr recordingmode vector
attr source receptionStateChanged
attr title "Radio reception state"
vector 133 GradysNetwork.quads[2].wlan[0].mac.dcf.channelAccess.contention stateChanged:vector ETV
attr enum IDLE,DEFER,IFS_AND_BACKOFF
attr interpolationmode none
attr recordingmode vector
attr title "contention state changed"
attr type enum
vector 134 GradysNetwork.quads[3].wlan[0].radio receptionState:vector ETV
attr interpolationmode sample-hold
attr recordingmode vector
attr source receptionStateChanged
attr title "Radio reception state"
vector 135 GradysNetwork.quads[3].wlan[0].mac.dcf.channelAccess.contention stateChanged:vector ETV
attr enum IDLE,DEFER,IFS_AND_BACKOFF
attr interpolationmode none
attr recordingmode vector
attr title "contention state changed"
attr type enum
vector 136 GradysNetwork.sensors[0].wlan[0].radio receptionState:vector ETV
attr interpolationmode sample-hold
attr recordingmode vector
attr source receptionStateChanged
attr title "Radio reception state"
vector 137 GradysNetwork.sensors[0].wlan[0].mac.dcf.channelAccess.contention stateChanged:vector ETV
attr enum IDLE,DEFER,IFS_AND_BACKOFF
attr interpolationmode none
attr recordingmode vector
attr title "contention state changed"
attr type enum
vector 138 GradysNetwork.sensors[1].wlan[0].radio receptionState:vector ETV
attr interpolationmode sample-hold
attr recordingmode vector
attr source receptionStateChanged
attr title "Radio reception state"
vector 139 GradysNetwork.sensors[1].wlan[0].mac.dcf.channelAccess.contention stateChanged:vector ETV
attr enum IDLE,DEFER,IFS_AND_BACKOFF
attr interpolationmode none
attr recordingmode vector
attr title "contention state changed"
attr type enum
vector 140 GradysNetwork.sensors[2].wlan[0].radio receptionState:vector ETV
attr interpolationmode sample-hold
attr recordingmode vector
attr source receptionStateChanged
attr title "Radio reception state"
vector 141 GradysNetwork.sensors[2].wlan[0].mac.dcf.channelAccess.contention stateChanged:vector ETV
attr enum IDLE,DEFER,IFS_AND_BACKOFF
attr interpolationmode none
attr recordingmode vector
attr title "contention state changed"
attr type enum
vector 142 GradysNetwork.sensors[3].wlan[0].radio receptionState:vector ETV
attr interpolationmode sample-hold
attr recordingmode vector
attr source receptionStateChanged
attr title "Radio reception state"
vector 143 GradysNetwork.sensors[3].wlan[0].mac.dcf.channelAccess.contention stateChanged:vector ETV
attr enum IDLE,DEFER,IFS_AND_BACKOFF
attr interpolationmode none
attr recordingmode vector
attr title "contention state changed"
attr type enum
vector 144 GradysNetwork.sensors[4].wlan[0].radio receptionState:vector ETV
attr interpolationmode sample-hold
attr recordingmode vector
attr source receptionStateChanged
attr title "Radio reception state"
vector 145 GradysNetwork.sensors[4].wlan[0].mac.dcf.channelAccess.contention stateChanged:vector ETV
attr enum IDLE,DEFER,IFS_AND_BACKOFF
attr interpolationmode none
attr recordingmode vector
attr title "contention state changed"
attr type enum
vector 146 GradysNetwork.sensors[5].wlan[0].radio receptionState:vector ETV
attr interpolationmode sample-hold
attr recordingmode vector
attr source receptionStateChanged
attr title "Radio reception state"
vector 147 GradysNetwork.sensors[5].wlan[0].mac.dcf.channelAccess.contention stateChanged:vector ETV
attr enum IDLE,DEFER,IFS_AND_BACKOFF
attr interpolationmode none
attr recordingmode vector
attr title "contention state changed"
attr type enum
vector 148 GradysNetwork.sensors[6].wlan[0].radio receptionState:vector ETV
attr interpolationmode sample-hold
attr recordingmode vector
attr source receptionStateChanged
attr title "Radio reception state"
vector 149 GradysNetwork.sensors[6].wlan[0].mac.dcf.channelAccess.contention stateChanged:vector ETV
attr enum IDLE,DEFER,IFS_AND_BACKOFF
attr interpolationmode none
attr recordingmode vector
attr title "contention state changed"
attr type enum
vector 150 GradysNetwork.sensors[7].wlan[0].radio receptionState:vector ETV
attr interpolationmode sample-hold
attr recordingmode vector
attr source receptionStateChanged
attr title "Radio reception state"
vector 151 GradysNetwork.sensors[7].wlan[0].mac.dcf.channelAccess.contention stateChanged:vector ETV
attr enum IDLE,DEFER,IFS_AND_BACKOFF
attr interpolationmode none
attr recordingmode vector
attr title "contention state changed"
attr type enum
vector 152 GradysNetwork.groundStation.wlan[0].radio receptionState:vector ETV
attr interpolationmode sample-hold
attr recordingmode vector
attr source receptionStateChanged
attr title "Radio reception state"
vector 153 GradysNetwork.groundStation.wlan[0].mac.dcf.channelAccess.contention stateChanged:vector ETV
attr enum IDLE,DEFER,IFS_AND_BACKOFF
attr interpolationmode none
attr recordingmode vector
attr title "contention state changed"
attr type enum
vector 154 GradysNetwork.farm.wlan[0].radio receptionState:vector ETV
attr interpolationmode sample-hold
attr recordingmode vector
attr source receptionStateChanged
attr title "Radio reception state"
vector 155 GradysNetwork.farm.wlan[0].mac.dcf.channelAccess.contention stateChanged:vector ETV
attr enum IDLE,DEFER,IFS_AND_BACKOFF
attr interpolationmode none
attr recordingmode vector
attr title "contention state changed"
attr type enum
vector 156 GradysNetwork.quads[0].wlan[0].mac.dcf.recoveryProcedure contentionWindowChanged:vector ETV
attr interpolationmode sample-hold
attr recordingmode vector
attr title "contention window"
vector 157 GradysNetwork.quads[1].wlan[0].mac.dcf.recoveryProcedure contentionWindowChanged:vector ETV
attr interpolationmode sample-hold
attr recordingmode vector
attr title "contention window"
vector 158 GradysNetwork.quads[2].wlan[0].mac.dcf.recoveryProcedure contentionWindowChanged:vector ETV
attr interpolationmode sample-hold
attr recordingmode vector
attr title "contention window"
vector 159 GradysNetwork.quads[3].wlan[0].mac.dcf.recoveryProcedure contentionWindowChanged:vector ETV
attr interpolationmode sample-hold
attr recordingmode vector
attr title "contention window"
vector 160 GradysNetwork.sensors[0].wlan[0].mac.dcf.recoveryProcedure contentionWindowChanged:vector ETV
attr interpolationmode sample-hold
attr recordingmode vector
attr title "contention window"
vector 161 GradysNetwork.sensors[1].wlan[0].mac.dcf.recoveryProcedure contentionWindowChanged:vector ETV
attr interpolationmode sample-hold
attr recordingmode vector
attr title "contention window"
vector 162 GradysNetwork.sensors[2].wlan[0].mac.dcf.recoveryProcedure contentionWindowChanged:vector ETV
attr interpolationmode sample-hold
attr recordingmode vector
attr title "contention window"
vector 163 GradysNetwork.sensors[3].wlan[0].mac.dcf.recoveryProcedure contentionWindowChanged:vector ETV
attr interpolationmode sample-hold
attr recordingmode vector
attr title "contention window"
vector 164 GradysNetwork.sensors[4].wlan[0].mac.dcf.recoveryProcedure contentionWindowChanged:vector ETV
attr interpolationmode sample-hold
attr recordingmode vector
attr title "contention window"
vector 165 GradysNetwork.sensors[5].wlan[0].mac.dcf.recoveryProcedure contentionWindowChanged:vector ETV
attr interpolationmode sample-hold
attr recordingmode vector
attr title "contention window"
vector 166 GradysNetwork.sensors[6].wlan[0].mac.dcf.recoveryProcedure contentionWindowChanged:vector ETV
attr interpolationmode sample-hold
attr recordingmode vector
attr title "contention window"
vector 167 GradysNetwork.sensors[7].wlan[0].mac.dcf.recoveryProcedure contentionWindowChanged:vector ETV
attr interpolationmode sample-hold
attr recordingmode vector
attr title "contention window"
vector 168 GradysNetwork.groundStation.wlan[0].mac.dcf.recoveryProcedure contentionWindowChanged:vector ETV
attr interpolationmode sample-hold
attr recordingmode vector
attr title "contention window"
vector 169 GradysNetwork.farm.wlan[0].mac.dcf.recoveryProcedure contentionWindowChanged:vector ETV
attr interpolationmode sample-hold
attr recordingmode vector
attr title "contention window"
vector 170 GradysNetwork.quads[0].app[0] packetSent:vector(packetBytes) ETV
attr interpolationmode none
attr recordingmode vector(packetBytes)
attr source packetSent
attr title "packets sent, packetBytes"
vector 171 GradysNetwork.quads[0].udp packetSent:vector(packetBytes) ETV
attr interpolationmode none
attr recordingmode vector(packetBytes)
attr source packetSent
attr title "packets sent, packetBytes"
vector 172 GradysNetwork.quads[0].lo[0].lo rcvdPkFromHl:vector(packetBytes) ETV
attr interpolationmode none
attr recordingmode vector(packetBytes)
attr source packetReceivedFromUpper
attr title "packets received from higher layer, packetBytes"
vector 173 GradysNetwork.quads[0].lo[0].lo passedUpPk:vector(packetBytes) ETV
attr interpolationmode none
attr recordingmode vector(packetBytes)
attr source packetSentToUpper
attr title "packets passed to higher layer, packetBytes"
vector 174 GradysNetwork.quads[0].wlan[0].mac packetReceivedFromUpper:vector(packetBytes) ETV
attr interpolationmode none
attr recordingmode vector(packetBytes)
attr title "packets received from upper layer, packetBytes"
vector 175 GradysNetwork.quads[0].wlan[0].mac.dcf.channelAccess.pendingQueue incomingPacketLengths:vector ETV
attr interpolationmode none
attr recordingmode vector
attr source packetLength(packetPushStarted)
attr title "incoming packet lengths"
attr unit b
vector 176 GradysNetwork.quads[0].wlan[0].mac.dcf.channelAccess.pendingQueue queueLength:vector ETV
attr autoWarmupFilter false
attr interpolationmode sample-hold
attr recordingmode vector
attr source "warmup(atomic(constant0(packetPushEnded) + count(packetPushStarted) - count(packetPulled) - count(packetRemoved) - count(packetDropped)))"
attr title "queue length"
attr unit pk
vector 177 GradysNetwork.quads[0].wlan[0].mac.dcf.channelAccess.pendingQueue queueBitLength:vector ETV
attr autoWarmupFilter false
attr interpolationmode sample-hold
attr recordingmode vector
attr source "warmup(atomic(constant0(packetPushEnded) + sum(packetLength(packetPushStarted)) - sum(packetLength(packetPulled)) - sum(packetLength(packetRemoved)) - sum(packetLength(packetDropped))))"
attr title "queue bit length"
attr unit b
vector 178 GradysNetwork.quads[0].wlan[0].mac.dcf.channelAccess.contention backoffPeriodGenerated:vector ETV
attr interpolationmode none
attr recordingmode vector
attr title "backoff periods"
vector 179 GradysNetwork.quads[0].udp packetReceived:vector(packetBytes) ETV
attr interpolationmode none
attr recordingmode vector(packetBytes)
attr source packetReceived
attr title "packets received, packetBytes"
vector 180 GradysNetwork.quads[0].wlan[0].mac.dcf.channelAccess.pendingQueue queueingTime:vector ETV
attr interpolationmode none
attr recordingmode vector
attr source queueingTime(packetPulled)
attr title "queueing times"
attr unit s
vector 181 GradysNetwork.quads[0].wlan[0].mac.dcf.channelAccess.pendingQueue outgoingPacketLengths:vector ETV
attr interpolationmode none
attr recordingmode vector
attr source packetLength(packetPulled)
attr title "outgoing packet lengths"
attr unit b
vector 182 GradysNetwork.quads[0].wlan[0].mac.dcf datarateSelected:vector ETV
attr interpolationmode none
attr recordingmode vector
attr title "datarates selected"
vector 183 GradysNetwork.quads[0].wlan[0].mac packetSentToLower:vector(packetBytes) ETV
attr interpolationmode none
attr recordingmode vector(packetBytes)
attr title "packets sent to lower layer, packetBytes"
vector 184 GradysNetwork.quads[0].wlan[0].radio transmissionState:vector ETV
attr interpolationmode sample-hold
attr recordingmode vector
attr source transmissionStateChanged
attr title "Radio transmission state"
vector 185 GradysNetwork.sensors[3].energyStorage residualEnergyCapacity:vector ETV
attr interpolationmode linear
attr recordingmode vector
attr source residualEnergyCapacityChanged
attr title "Residual energy capacity"
attr unit J
vector 186 GradysNetwork.sensors[2].energyStorage residualEnergyCapacity:vector ETV
attr interpolationmode linear
attr recordingmode vector
attr source residualEnergyCapacityChanged
attr title "Residual energy capacity"
attr unit J
vector 187 GradysNetwork.sensors[7].energyStorage residualEnergyCapacity:vector ETV
attr interpolationmode linear
attr recordingmode vector
attr source residualEnergyCapacityChanged
attr title "Residual energy capacity"
attr unit J
vector 188 GradysNetwork.sensors[4].energyStorage residualEnergyCapacity:vector ETV
attr interpolationmode linear
attr recordingmode vector
attr source residualEnergyCapacityChanged
attr title "Residual energy capacity"
attr unit J
vector 189 GradysNetwork.sensors[0].energyStorage residualEnergyCapacity:vector ETV
attr interpolationmode linear
attr recordingmode vector
attr source residualEnergyCapacityChanged
attr title "Residual energy capacity"
attr unit J
vector 190 GradysNetwork.sensors[5].energyStorage residualEnergyCapacity:vector ETV
attr interpolationmode linear
attr recordingmode vector
attr source residualEnergyCapacityChanged
attr title "Residual energy capacity"
attr unit J
vector 191 GradysNetwork.sensors[1].energyStorage residualEnergyCapacity:vector ETV
attr interpolationmode linear
attr recordingmode vector
attr source residualEnergyCapacityChanged
attr title "Residual energy capacity"
attr unit J
vector 192 GradysNetwork.quads[0].wlan[0].mac.dcf packetSentToPeer:vector(packetBytes) ETV
attr interpolationmode none
attr recordingmode vector(packetBytes)
attr title "packets sent, packetBytes"
vector 193 GradysNetwork.quads[0].wlan[0].mac.dcf packetSentToPeerMulticast:vector(packetBytes) ETV
attr interpolationmode none
attr recordingmode vector(packetBytes)
attr source ieee80211Multicast(packetSentToPeer)
attr title "packets sent: multicast, packetBytes"
vector 194 GradysNetwork.quads[0].wlan[0].mac.dcf packetSentToPeerWithoutRetry:vector(packetBytes) ETV
attr interpolationmode none
attr recordingmode vector(packetBytes)
attr source ieee80211NotRetry(packetSentToPeer)
attr title "packets sent: without retry, packetBytes"
vector 195 GradysNetwork.quads[0].wlan[0].mac.dcf.channelAccess.inProgressFrames queueingTime:vector ETV
attr interpolationmode none
attr recordingmode vector
attr source queueingTime(packetDequeued)
attr title "queueing times"
vector 196 GradysNetwork.quads[1].wlan[0].mac packetReceivedFromLower:vector(packetBytes) ETV
attr interpolationmode none
attr recordingmode vector(packetBytes)
attr title "packets received from lower layer, packetBytes"
vector 197 GradysNetwork.quads[1].wlan[0].mac.dcf packetReceivedFromPeer:vector(packetBytes) ETV
attr interpolationmode none
attr recordingmode vector(packetBytes)
attr title "packets received, packetBytes"
vector 198 GradysNetwork.quads[1].wlan[0].mac.dcf packetReceivedFromPeerMulticast:vector(packetBytes) ETV
attr interpolationmode none
attr recordingmode vector(packetBytes)
attr source ieee80211Multicast(packetReceivedFromPeer)
attr title "packets received: multicast, packetBytes"
vector 199 GradysNetwork.quads[1].wlan[0].mac.dcf packetReceivedFromPeerWithoutRetry:vector(packetBytes) ETV
attr interpolationmode none
attr recordingmode vector(packetBytes)
attr source ieee80211NotRetry(packetReceivedFromPeer)
attr title "packets received: without retry, packetBytes"
vector 200 GradysNetwork.quads[1].wlan[0].mac packetSentToUpper:vector(packetBytes) ETV
attr interpolationmode none
attr recordingmode vector(packetBytes)
attr title "packets sent to upper layer, packetBytes"
vector 201 GradysNetwork.quads[2].wlan[0].mac packetReceivedFromLower:vector(packetBytes) ETV
attr interpolationmode none
attr recordingmode vector(packetBytes)
attr title "packets received from lower layer, packetBytes"
vector 202 GradysNetwork.quads[2].wlan[0].mac.dcf packetReceivedFromPeer:vector(packetBytes) ETV
attr interpolationmode none
attr recordingmode vector(packetBytes)
attr title "packets received, packetBytes"
vector 203 GradysNetwork.quads[2].wlan[0].mac.dcf packetReceivedFromPeerMulticast:vector(packetBytes) ETV
attr interpolationmode none
attr recordingmode vector(packetBytes)
attr source ieee80211Multicast(packetReceivedFromPeer)
attr title "packets received: multicast, packetBytes"
vector 204 GradysNetwork.quads[2].wlan[0].mac.dcf packetReceivedFromPeerWithoutRetry:vector(packetBytes) ETV
attr interpolationmode none
attr recordingmode vector(packetBytes)
attr source ieee80211NotRetry(packetReceivedFromPeer)
attr title "packets received: without retry, packetBytes"
vector 205 GradysNetwork.quads[2].wlan[0].mac packetSentToUpper:vector(packetBytes) ETV
attr interpolationmode none
attr recordingmode vector(packetBytes)
attr title "packets sent to upper layer, packetBytes"
vector 206 GradysNetwork.groundStation.wlan[0].mac packetReceivedFromLower:vector(packetBytes) ETV
attr interpolationmode none
attr recordingmode vector(packetBytes)
attr title "packets received from lower layer, packetBytes"
vector 207 GradysNetwork.groundStation.wlan[0].mac.dcf packetReceivedFromPeer:vector(packetBytes) ETV
attr interpolationmode none
attr recordingmode vector(packetBytes)
attr title "packets received, packetBytes"
vector 208 GradysNetwork.groundStation.wlan[0].mac.dcf packetReceivedFromPeerMulticast:vector(packetBytes) ETV
attr interpolationmode none
attr recordingmode vector(packetBytes)
attr source ieee80211Multicast(packetReceivedFromPeer)
attr title "packets received: multicast, packetBytes"
vector 209 GradysNetwork.groundStation.wlan[0].mac.dcf packetReceivedFromPeerWithoutRetry:vector(packetBytes) ETV
attr interpolationmode none
attr recordingmode vector(packetBytes)
attr source ieee80211NotRetry(packetReceivedFromPeer)
attr title "packets received: without retry, packetBytes"
vector 210 GradysNetwork.groundStation.wlan[0].mac packetSentToUpper:vector(packetBytes) ETV
attr interpolationmode none
attr recordingmode vector(packetBytes)
attr title "packets sent to upper layer, packetBytes"
vector 211 GradysNetwork.farm.wlan[0].mac packetReceivedFromLower:vector(packetBytes) ETV
attr interpolationmode none
attr recordingmode vector(packetBytes)
attr title "packets received from lower layer, packetBytes"
vector 212 GradysNetwork.farm.wlan[0].mac.dcf packetReceivedFromPeer:vector(packetBytes) ETV
attr interpolationmode none
attr recordingmode vector(packetBytes)
attr title "packets received, packetBytes"
vector 213 GradysNetwork.farm.wlan[0].mac.dcf packetReceivedFromPeerMulticast:vector(packetBytes) ETV
attr interpolationmode none
attr recordingmode vector(packetBytes)
attr source ieee80211Multicast(packetReceivedFromPeer)
attr title "packets received: multicast, packetBytes"
vector 214 GradysNetwork.farm.wlan[0].mac.dcf packetReceivedFromPeerWithoutRetry:vector(packetBytes) ETV
attr interpolationmode none
attr recordingmode vector(packetBytes)
attr source ieee80211NotRetry(packetReceivedFromPeer)
attr title "packets received: without retry, packetBytes"
vector 215 GradysNetwork.farm.wlan[0].mac packetSentToUpper:vector(packetBytes) ETV
attr interpolationmode none
attr recordingmode vector(packetBytes)
attr title "packets sent to upper layer, packetBytes"
vector 216 GradysNetwork.quads[3].wlan[0].mac packetReceivedFromLower:vector(packetBytes) ETV
attr interpolationmode none
attr recordingmode vector(packetBytes)
attr title "packets received from lower layer, packetBytes"
vector 217 GradysNetwork.quads[3].wlan[0].mac.dcf packetReceivedFromPeer:vector(packetBytes) ETV
attr interpolationmode none
attr recordingmode vector(packetBytes)
attr title "packets received, packetBytes"
vector 218 GradysNetwork.quads[3].wlan[0].mac.dcf packetReceivedFromPeerMulticast:vector(packetBytes) ETV
attr interpolationmode none
attr recordingmode vector(packetBytes)
attr source ieee80211Multicast(packetReceivedFromPeer)
attr title "packets received: multicast, packetBytes"
vector 219 GradysNetwork.quads[3].wlan[0].mac.dcf packetReceivedFromPeerWithoutRetry:vector(packetBytes) ETV
attr interpolationmode none
attr recordingmode vector(packetBytes)
attr source ieee80211NotRetry(packetReceivedFromPeer)
attr title "packets received: without retry, packetBytes"
vector 220 GradysNetwork.quads[3].wlan[0].mac packetSentToUpper:vector(packetBytes) ETV
attr interpolationmode none
attr recordingmode vector(packetBytes)
attr title "packets sent to upper layer, packetBytes"
vector 221 GradysNetwork.sensors[3].wlan[0].mac packetReceivedFromLower:vector(packetBytes) ETV
attr interpolationmode none
attr recordingmode vector(packetBytes)
attr title "packets received from lower layer, packetBytes"
vector 222 GradysNetwork.sensors[3].wlan[0].mac.dcf packetReceivedFromPeer:vector(packetBytes) ETV
attr interpolationmode none
attr recordingmode vector(packetBytes)
attr title "packets received, packetBytes"
vector 223 GradysNetwork.sensors[3].wlan[0].mac.dcf packetReceivedFromPeerMulticast:vector(packetBytes) ETV
attr interpolationmode none
attr recordingmode vector(packetBytes)
attr source ieee80211Multicast(packetReceivedFromPeer)
attr title "packets received: multicast, packetBytes"
vector 224 GradysNetwork.sensors[3].wlan[0].mac.dcf packetReceivedFromPeerWithoutRetry:vector(packetBytes) ETV
attr interpolationmode none
attr recordingmode vector(packetBytes)
attr source ieee80211NotRetry(packetReceivedFromPeer)
attr title "packets received: without retry, packetBytes"
vector 225 GradysNetwork.sensors[3].wlan[0].mac packetSentToUpper:vector(packetBytes) ETV
attr interpolationmode none
attr recordingmode vector(packetBytes)
attr title "packets sent to upper layer, packetBytes"
vector 226 GradysNetwork.sensors[2].wlan[0].mac packetReceivedFromLower:vector(packetBytes) ETV
attr interpolationmode none
attr recordingmode vector(packetBytes)
attr title "packets received from lower layer, packetBytes"
vector 227 GradysNetwork.sensors[2].wlan[0].mac.dcf packetReceivedFromPeer:vector(packetBytes) ETV
attr interpolationmode none
attr recordingmode vector(packetBytes)
attr title "packets received, packetBytes"
vector 228 GradysNetwork.sensors[2].wlan[0].mac.dcf packetReceivedFromPeerMulticast:vector(packetBytes) ETV
attr interpolationmode none
attr recordingmode vector(packetBytes)
attr source ieee80211Multicast(packetReceivedFromPeer)
attr title "packets received: multicast, packetBytes"
vector 229 GradysNetwork.sensors[2].wlan[0].mac.dcf packetReceivedFromPeerWithoutRetry:vector(packetBytes) ETV
attr interpolationmode none
attr recordingmode vector(packetBytes)
attr source ieee80211NotRetry(packetReceivedFromPeer)
attr title "packets received: without retry, packetBytes"
vector 230 GradysNetwork.sensors[2].wlan[0].mac packetSentToUpper:vector(packetBytes) ETV
attr interpolationmode none
attr recordingmode vector(packetBytes)
attr title "packets sent to upper layer, packetBytes"
vector 231 GradysNetwork.sensors[7].wlan[0].mac packetReceivedFromLower:vector(packetBytes) ETV
attr interpolationmode none
attr recordingmode vector(packetBytes)
attr title "packets received from lower layer, packetBytes"
vector 232 GradysNetwork.sensors[7].wlan[0].mac.dcf packetReceivedFromPeer:vector(packetBytes) ETV
attr interpolationmode none
attr recordingmode vector(packetBytes)
attr title "packets received, packetBytes"
vector 233 GradysNetwork.sensors[7].wlan[0].mac.dcf packetReceivedFromPeerMulticast:vector(packetBytes) ETV
attr interpolationmode none
attr recordingmode vector(packetBytes)
attr source ieee80211Multicast(packetReceivedFromPeer)
attr title "packets received: multicast, packetBytes"
vector 234 GradysNetwork.sensors[7].wlan[0].mac.dcf packetReceivedFromPeerWithoutRetry:vector(packetBytes) ETV
attr interpolationmode none
attr recordingmode vector(packetBytes)
attr source ieee80211NotRetry(packetReceivedFromPeer)
attr title "packets received: without retry, packetBytes"
vector 235 GradysNetwork.sensors[7].wlan[0].mac packetSentToUpper:vector(packetBytes) ETV
attr interpolationmode none
attr recordingmode vector(packetBytes)
attr title "packets sent to upper layer, packetBytes"
vector 236 GradysNetwork.sensors[4].wlan[0].mac packetReceivedFromLower:vector(packetBytes) ETV
attr interpolationmode none
attr recordingmode vector(packetBytes)
attr title "packets received from lower layer, packetBytes"
vector 237 GradysNetwork.sensors[4].wlan[0].mac.dcf packetReceivedFromPeer:vector(packetBytes) ETV
attr interpolationmode none
attr recordingmode vector(packetBytes)
attr title "packets received, packetBytes"
vector 238 GradysNetwork.sensors[4].wlan[0].mac.dcf packetReceivedFromPeerMulticast:vector(packetBytes) ETV
attr interpolationmode none
attr recordingmode vector(packetBytes)
attr source ieee80211Multicast(packetReceivedFromPeer)
attr title "packets received: multicast, packetBytes"
vector 239 GradysNetwork.sensors[4].wlan[0].mac.dcf packetReceivedFromPeerWithoutRetry:vector(packetBytes) ETV
attr interpolationmode none
attr recordingmode vector(packetBytes)
attr source ieee80211NotRetry(packetReceivedFromPeer)
attr title "packets received: without retry, packetBytes"
vector 240 GradysNetwork.sensors[4].wlan[0].mac packetSentToUpper:vector(packetBytes) ETV
attr interpolationmode none
attr recordingmode vector(packetBytes)
attr title "packets sent to upper layer, packetBytes"
vector 241 GradysNetwork.sensors[0].wlan[0].mac packetReceivedFromLower:vector(packetBytes) ETV
attr interpolationmode none
attr recordingmode vector(packetBytes)
attr title "packets received from lower layer, packetBytes"
vector 242 GradysNetwork.sensors[0].wlan[0].mac.dcf packetReceivedFromPeer:vector(packetBytes) ETV
attr interpolationmode none
attr recordingmode vector(packetBytes)
attr title "packets received, packetBytes"
vector 243 GradysNetwork.sensors[0].wlan[0].mac.dcf packetReceivedFromPeerMulticast:vector(packetBytes) ETV
attr interpolationmode none
attr recordingmode vector(packetBytes)
attr source ieee80211Multicast(packetReceivedFromPeer)
attr title "packets received: multicast, packetBytes"
vector 244 GradysNetwork.sensors[0].wlan[0].mac.dcf packetReceivedFromPeerWithoutRetry:vector(packetBytes) ETV
attr interpolationmode none
attr recordingmode vector(packetBytes)
attr source ieee80211NotRetry(packetReceivedFromPeer)
attr title "packets received: without retry, packetBytes"
vector 245 GradysNetwork.sensors[0].wlan[0].mac packetSentToUpper:vector(packetBytes) ETV
attr interpolationmode none
attr recordingmode vector(packetBytes)
attr title "packets sent to upper layer, packetBytes"
vector 246 GradysNetwork.sensors[5].wlan[0].mac packetReceivedFromLower:vector(packetBytes) ETV
attr interpolationmode none
attr recordingmode vector(packetBytes)
attr title "packets received from lower layer, packetBytes"
vector 247 GradysNetwork.sensors[5].wlan[0].mac.dcf packetReceivedFromPeer:vector(packetBytes) ETV
attr interpolationmode none
attr recordingmode vector(packetBytes)
attr title "packets received, packetBytes"
vector 248 GradysNetwork.sensors[5].wlan[0].mac.dcf packetReceivedFromPeerMulticast:vector(packetBytes) ETV
attr interpolationmode none
attr recordingmode vector(packetBytes)
attr source ieee80211Multicast(packetReceivedFromPeer)
attr title "packets received: multicast, packetBytes"
vector 249 GradysNetwork.sensors[5].wlan[0].mac.dcf packetReceivedFromPeerWithoutRetry:vector(packetBytes) ETV
attr interpolationmode none
attr recordingmode vector(packetBytes)
attr source ieee80211NotRetry(packetReceivedFromPeer)
attr title "packets received: without retry, packetBytes"
vector 250 GradysNetwork.sensors[5].wlan[0].mac packetSentToUpper:vector(packetBytes) ETV
attr interpolationmode none
attr recordingmode vector(packetBytes)
attr title "packets sent to upper layer, packetBytes"
vector 251 GradysNetwork.sensors[1].wlan[0].mac packetReceivedFromLower:vector(packetBytes) ETV
attr interpolationmode none
attr recordingmode vector(packetBytes)
attr title "packets received from lower layer, packetBytes"
vector 252 GradysNetwork.sensors[1].wlan[0].mac.dcf packetReceivedFromPeer:vector(packetBytes) ETV
attr interpolationmode none
attr recordingmode vector(packetBytes)
attr title "packets received, packetBytes"
vector 253 GradysNetwork.sensors[1].wlan[0].mac.dcf packetReceivedFromPeerMulticast:vector(packetBytes) ETV
attr interpolationmode none
attr recordingmode vector(packetBytes)
attr source ieee80211Multicast(packetReceivedFromPeer)
attr title "packets received: multicast, packetBytes"
vector 254 GradysNetwork.sensors[1].wlan[0].mac.dcf packetReceivedFromPeerWithoutRetry:vector(packetBytes) ETV
attr interpolationmode none
attr recordingmode vector(packetBytes)
attr source ieee80211NotRetry(packetReceivedFromPeer)
attr title "packets received: without retry, packetBytes"
vector 255 GradysNetwork.sensors[1].wlan[0].mac packetSentToUpper:vector(packetBytes) ETV
attr interpolationmode none
attr recordingmode vector(packetBytes)
attr title "packets sent to upper layer, packetBytes"
vector 256 GradysNetwork.sensors[0].app[0] packetSent:vector(packetBytes) ETV
attr interpolationmode none
attr recordingmode vector(packetBytes)
attr source packetSent
attr title "packets sent, packetBytes"
vector 257 GradysNetwork.sensors[0].udp packetSent:vector(packetBytes) ETV
attr interpolationmode none
attr recordingmode vector(packetBytes)
attr source packetSent
attr title "packets sent, packetBytes"
vector 258 GradysNetwork.sensors[0].lo[0].lo rcvdPkFromHl:vector(packetBytes) ETV
attr interpolationmode none
attr recordingmode vector(packetBytes)
attr source packetReceivedFromUpper
attr title "packets received from higher layer, packetBytes"
vector 259 GradysNetwork.sensors[0].lo[0].lo passedUpPk:vector(packetBytes) ETV
attr interpolationmode none
attr recordingmode vector(packetBytes)
attr source packetSentToUpper
attr title "packets passed to higher layer, packetBytes"
vector 260 GradysNetwork.sensors[0].wlan[0].mac packetReceivedFromUpper:vector(packetBytes) ETV
attr interpolationmode none
attr recordingmode vector(packetBytes)
attr title "packets received from upper layer, packetBytes"
vector 261 GradysNetwork.sensors[0].wlan[0].mac.dcf.channelAccess.pendingQueue incomingPacketLengths:vector ETV
attr interpolationmode none
attr recordingmode vector
attr source packetLength(packetPushStarted)
attr title "incoming packet lengths"
attr unit b
vector 262 GradysNetwork.sensors[0].wlan[0].mac.dcf.channelAccess.pendingQueue incomingDataRate:vector ETV
attr interpolationmode linear
attr recordingmode vector
attr source throughput(packetPushStarted)
attr title "incoming datarate"
attr unit bps
vector 263 GradysNetwork.sensors[0].wlan[0].mac.dcf.channelAccess.pendingQueue queueLength:vector ETV
attr autoWarmupFilter false
attr interpolationmode sample-hold
attr recordingmode vector
attr source "warmup(atomic(constant0(packetPushEnded) + count(packetPushStarted) - count(packetPulled) - count(packetRemoved) - count(packetDropped)))"
attr title "queue length"
attr unit pk
vector 264 GradysNetwork.sensors[0].wlan[0].mac.dcf.channelAccess.pendingQueue queueBitLength:vector ETV
attr autoWarmupFilter false
attr interpolationmode sample-hold
attr recordingmode vector
attr source "warmup(atomic(constant0(packetPushEnded) + sum(packetLength(packetPushStarted)) - sum(packetLength(packetPulled)) - sum(packetLength(packetRemoved)) - sum(packetLength(packetDropped))))"
attr title "queue bit length"
attr unit b
vector 265 GradysNetwork.sensors[0].wlan[0].mac.dcf.channelAccess.contention backoffPeriodGenerated:vector ETV
attr interpolationmode none
attr recordingmode vector
attr title "backoff periods"
vector 266 GradysNetwork.sensors[0].udp packetReceived:vector(packetBytes) ETV
attr interpolationmode none
attr recordingmode vector(packetBytes)
attr source packetReceived
attr title "packets received, packetBytes"
vector 267 GradysNetwork.sensors[0].wlan[0].mac.dcf.channelAccess.pendingQueue queueingTime:vector ETV
attr interpolationmode none
attr recordingmode vector
attr source queueingTime(packetPulled)
attr title "queueing times"
attr unit s
vector 268 GradysNetwork.sensors[0].wlan[0].mac.dcf.channelAccess.pendingQueue outgoingPacketLengths:vector ETV
attr interpolationmode none
attr recordingmode vector
attr source packetLength(packetPulled)
attr title "outgoing packet lengths"
attr unit b
vector 269 GradysNetwork.sensors[0].wlan[0].mac.dcf.channelAccess.pendingQueue outgoingDataRate:vector ETV
attr interpolationmode linear
attr recordingmode vector
attr source throughput(packetPulled)
attr title "outgoing datarate"
attr unit bps
vector 270 GradysNetwork.sensors[0].wlan[0].mac.dcf datarateSelected:vector ETV
attr interpolationmode none
attr recordingmode vector
attr title "datarates selected"
vector 271 GradysNetwork.sensors[0].wlan[0].mac packetSentToLower:vector(packetBytes) ETV
attr interpolationmode none
attr recordingmode vector(packetBytes)
attr title "packets sent to lower layer, packetBytes"
vector 272 GradysNetwork.sensors[0].wlan[0].radio transmissionState:vector ETV
attr interpolationmode sample-hold
attr recordingmode vector
attr source transmissionStateChanged
attr title "Radio transmission state"
vector 273 GradysNetwork.sensors[6].energyStorage residualEnergyCapacity:vector ETV
attr interpolationmode linear
attr recordingmode vector
attr source residualEnergyCapacityChanged
attr title "Residual energy capacity"
attr unit J
vector 274 GradysNetwork.sensors[0].wlan[0].mac.dcf packetSentToPeer:vector(packetBytes) ETV
attr interpolationmode none
attr recordingmode vector(packetBytes)
attr title "packets sent, packetBytes"
vector 275 GradysNetwork.sensors[0].wlan[0].mac.dcf packetSentToPeerMulticast:vector(packetBytes) ETV
attr interpolationmode none
attr recordingmode vector(packetBytes)
attr source ieee80211Multicast(packetSentToPeer)
attr title "packets sent: multicast, packetBytes"
vector 276 GradysNetwork.sensors[0].wlan[0].mac.dcf packetSentToPeerWithoutRetry:vector(packetBytes) ETV
attr interpolationmode none
attr recordingmode vector(packetBytes)
attr source ieee80211NotRetry(packetSentToPeer)
attr title "packets sent: without retry, packetBytes"
vector 277 GradysNetwork.sensors[0].wlan[0].mac.dcf.channelAccess.inProgressFrames queueingTime:vector ETV
attr interpolationmode none
attr recordingmode vector
attr source queueingTime(packetDequeued)
attr title "queueing times"
vector 278 GradysNetwork.sensors[6].wlan[0].mac packetReceivedFromLower:vector(packetBytes) ETV
attr interpolationmode none
attr recordingmode vector(packetBytes)
attr title "packets received from lower layer, packetBytes"
vector 279 GradysNetwork.sensors[6].wlan[0].mac.dcf packetReceivedFromPeer:vector(packetBytes) ETV
attr interpolationmode none
attr recordingmode vector(packetBytes)
attr title "packets received, packetBytes"
vector 280 GradysNetwork.sensors[6].wlan[0].mac.dcf packetReceivedFromPeerMulticast:vector(packetBytes) ETV
attr interpolationmode none
attr recordingmode vector(packetBytes)
attr source ieee80211Multicast(packetReceivedFromPeer)
attr title "packets received: multicast, packetBytes"
vector 281 GradysNetwork.sensors[6].wlan[0].mac.dcf packetReceivedFromPeerWithoutRetry:vector(packetBytes) ETV
attr interpolationmode none
attr recordingmode vector(packetBytes)
attr source ieee80211NotRetry(packetReceivedFromPeer)
attr title "packets received: without retry, packetBytes"
vector 282 GradysNetwork.sensors[6].wlan[0].mac packetSentToUpper:vector(packetBytes) ETV
attr interpolationmode none
attr recordingmode vector(packetBytes)
attr title "packets sent to upper layer, packetBytes"
vector 283 GradysNetwork.quads[0].wlan[0].mac packetReceivedFromLower:vector(packetBytes) ETV
attr interpolationmode none
attr recordingmode vector(packetBytes)
attr title "packets received from lower layer, packetBytes"
vector 284 GradysNetwork.quads[0].wlan[0].mac.dcf packetReceivedFromPeer:vector(packetBytes) ETV
attr interpolationmode none
attr recordingmode vector(packetBytes)
attr title "packets received, packetBytes"
vector 285 GradysNetwork.quads[0].wlan[0].mac.dcf packetReceivedFromPeerMulticast:vector(packetBytes) ETV
attr interpolationmode none
attr recordingmode vector(packetBytes)
attr source ieee80211Multicast(packetReceivedFromPeer)
attr title "packets received: multicast, packetBytes"
vector 286 GradysNetwork.quads[0].wlan[0].mac.dcf packetReceivedFromPeerWithoutRetry:vector(packetBytes) ETV
attr interpolationmode none
attr recordingmode vector(packetBytes)
attr source ieee80211NotRetry(packetReceivedFromPeer)
attr title "packets received: without retry, packetBytes"
vector 287 GradysNetwork.quads[0].wlan[0].mac packetSentToUpper:vector(packetBytes) ETV
attr interpolationmode none
attr recordingmode vector(packetBytes)
attr title "packets sent to upper layer, packetBytes"
vector 288 GradysNetwork.quads[0].app[0] packetReceived:vector(packetBytes) ETV
attr interpolationmode none
attr recordingmode vector(packetBytes)
attr source packetReceived
attr title "packets received, packetBytes"
vector 289 GradysNetwork.quads[0].app[0] throughput:vector ETV
attr recordingmode vector
attr source throughput(packetReceived)
attr title throughput
attr unit bps
vector 290 GradysNetwork.quads[0].app[0] rcvdPkLifetime:vector ETV
attr interpolationmode none
attr recordingmode vector
attr source dataAge(packetReceived)
attr title "received packet lifetime"
attr unit s
vector 291 GradysNetwork.sensors[7].app[0] packetSent:vector(packetBytes) ETV
attr interpolationmode none
attr recordingmode vector(packetBytes)
attr source packetSent
attr title "packets sent, packetBytes"
vector 292 GradysNetwork.sensors[7].udp packetSent:vector(packetBytes) ETV
attr interpolationmode none
attr recordingmode vector(packetBytes)
attr source packetSent
attr title "packets sent, packetBytes"
vector 293 GradysNetwork.sensors[7].lo[0].lo rcvdPkFromHl:vector(packetBytes) ETV
attr interpolationmode none
attr recordingmode vector(packetBytes)
attr source packetReceivedFromUpper
attr title "packets received from higher layer, packetBytes"
vector 294 GradysNetwork.sensors[7].lo[0].lo passedUpPk:vector(packetBytes) ETV
attr interpolationmode none
attr recordingmode vector(packetBytes)
attr source packetSentToUpper
attr title "packets passed to higher layer, packetBytes"
vector 295 GradysNetwork.sensors[7].wlan[0].mac packetReceivedFromUpper:vector(packetBytes) ETV
attr interpolationmode none
attr recordingmode vector(packetBytes)
attr title "packets received from upper layer, packetBytes"
vector 296 GradysNetwork.sensors[7].wlan[0].mac.dcf.channelAccess.pendingQueue incomingPacketLengths:vector ETV
attr interpolationmode none
attr recordingmode vector
attr source packetLength(packetPushStarted)
attr title "incoming packet lengths"
attr unit b
vector 297 GradysNetwork.sensors[7].wlan[0].mac.dcf.channelAccess.pendingQueue incomingDataRate:vector ETV
attr interpolationmode linear
attr recordingmode vector
attr source throughput(packetPushStarted)
attr title "incoming datarate"
attr unit bps
vector 298 GradysNetwork.sensors[7].wlan[0].mac.dcf.channelAccess.pendingQueue queueLength:vector ETV
attr autoWarmupFilter false
attr interpolationmode sample-hold
attr recordingmode vector
attr source "warmup(atomic(constant0(packetPushEnded) + count(packetPushStarted) - count(packetPulled) - count(packetRemoved) - count(packetDropped)))"
attr title "queue length"
attr unit pk
vector 299 GradysNetwork.sensors[7].wlan[0].mac.dcf.channelAccess.pendingQueue queueBitLength:vector ETV
attr autoWarmupFilter false
attr interpolationmode sample-hold
attr recordingmode vector
attr source "warmup(atomic(constant0(packetPushEnded) + sum(packetLength(packetPushStarted)) - sum(packetLength(packetPulled)) - sum(packetLength(packetRemoved)) - sum(packetLength(packetDropped))))"
[...]
458	4914999 348 28105 43472 13.253255260944 17.252424722896 12 71 71 852 60492
459	4915347 487 28435 43547 13.254224559259 17.252469216996 12 9.8499471e-05 0.003401296259 0.013468667527 3.0185869036374e-05
460	4915834 7131 26634 44925 13.04466679762 17.614100403123 247 14 71 10662 659002
461	4922965 202 28128 43127 13.253255577548 17.25149141551 7 71 71 497 35287
462	4923167 364 26817 42971 13.150169928676 17.251059040394 13 7 7 91 637
463	4923531 377 26818 42973 13.150169928676 17.251059040394 13 15 15 195 2925
466	4923908 377 26821 42979 13.150169928676 17.251059040394 13 43 43 559 24037
467	4924285 390 26821 42979 13.150169928676 17.251059040394 13 568 568 7384 4194112
468	4924675 735 26821 42978 13.1 17.2 42 0 11360 73840 742035200
469	4925410 728 26821 43159 13.150169928676 17.251745374231 26 0 2 23 33
470	4926138 769 26821 43159 13.150169928676 17.251745374231 26 0 1136 13064 10646592
471	4926907 458 26821 43669 13.150169928676 17.252668263217 16 1 44 322 8632
472	4927365 145 26999 42967 13.251058967243 17.251059040394 5 15 15 75 1125
473	4927510 492 26823 43159 13.150169928676 17.251745374231 13 0 0.002684579979 0.01187291686 2.0530745330222e-05
474	4928002 390 26823 43159 13.150169928676 17.251745374231 13 568 568 7384 4194112
475	4928392 735 26823 43159 13.1 17.2 42 0 11360 73840 742035200
476	4929127 558 26823 44067 13.150169928676 17.253900934018 16 24000000 24000000 384000000 9.216e+15
477	4929685 462 26823 44067 13.150169928676 17.253900934018 16 71 71 1136 80656
478	4930147 1784 26824 44084 13.150169928676 17.253954934018 64 0 2 64 96
479	4931931 462 26839 44083 13.150223928676 17.253954934018 16 71 71 1136 80656
481	4932393 376 26839 43614 13.150223928676 17.252613263217 13 71 71 923 65533
482	4932769 522 26916 44164 13.150268418501 17.253999520619 13 9.8473845e-05 0.002782019278 0.011051466579 2.5117874394496e-05
483	4933291 2594 26696 44112 13.044711162167 17.253955324692 90 14 71 2379 111705
484	4935885 376 30092 43655 14.000371203212 17.252613653869 13 14 71 560 33628
485	4936261 6965 26640 45043 13.044666861332 17.808467576477 241 14 71 10236 628756
486	4943226 491 27282 43621 13.251471972997 17.252613310296 17 14 71 1150 80852
487	4943717 140 26939 42805 13.251004747152 17.251004747152 5 7 7 35 245
488	4943857 145 26940 42806 13.251004747152 17.251004747152 5 15 15 75 1125
489	4944002 145 26942 42808 13.251004747152 17.251004747152 5 35 35 175 6125
490	4944147 145 26942 42808 13.251004747152 17.251004747152 5 35 35 175 6125
491	4944292 174 26945 42811 13.251004747152 17.251004747152 6 36 43 251 10541
492	4944466 180 26945 42811 13.251004747152 17.251004747152 6 512 568 3352 1875264
493	4944646 856 26945 42811 12.3 17.2 50 0 10800 33520 245689600
494	4945502 336 26945 42815 13.251004747152 17.251004747152 12 0 1 6 6
495	4945838 348 26945 42815 13.251004747152 17.251004747152 12 0 568 3352 1875264
496	4946186 170 26945 42811 13.251004747152 17.251004747152 6 2 25 70 1364
497	4946356 3035 26946 44993 13.251004747152 17.808423428189 105 15 15 1575 23625
498	4949391 172 26949 42815 13.251004747152 17.251004747152 6 0 9e-05 9e-05 8.1e-09
499	4949563 180 26949 42815 13.251004747152 17.251004747152 6 512 568 3352 1875264
500	4949743 856 26949 42815 12.3 17.2 50 0 10800 33520 245689600
501	4950599 3664 26949 44990 13.251004747152 17.808423428189 105 24000000 24000000 2520000000 6.048e+16
502	4954263 3034 26949 45011 13.251004747152 17.808433428189 105 14 71 1805 48705
503	4957297 11716 26950 45032 13.251004747152 17.808467428189 420 0 2 420 630
504	4969013 3034 26965 45031 13.251058747152 17.808467428189 105 14 71 1805 48705
505	4972047 145 26965 42831 13.251058747152 17.251058747152 5 71 71 355 25205
506	4972192 3034 26965 45031 13.251058747152 17.808467428189 105 14 71 1805 48705
507	4975226 210 26965 42831 13.251058747152 17.251058747152 6 5.4e-05 9.4644012e-05 0.000364644012 2.3537489007456e-08
508	4975436 140 27000 42968 13.251058967243 17.251059040394 5 7 7 35 245
509	4975576 716 27000 42968 13.1 17.2 42 0 560 2800 1568000
510	4976292 210 27000 42968 13.251058967243 17.251059040394 5 13.251058967243 17.251059040394 76.255295014421 1172.9740039134
512	4976502 82 27126 35687 13.25105906911 15.251059134622 3 7 7 21 147
513	4976584 376 27126 35687 13.1 15.2 22 0 560 1680 940800
514	4976960 122 27126 35687 13.25105906911 15.251059134622 3 13.25105906911 15.251059134622 42.753177305542 611.27805670406
515	4977082 57 27080 29877 13.25105903656 14.000054379225 2 28 28 56 1568
516	4977139 249 26983 42866 13.251058954968 17.251058910549 9 7 7 63 441
517	4977388 724 26983 42866 13.1 17.2 42 0 560 5040 2822400
518	4978112 372 26983 42866 13.251058954968 17.251058910549 9 13.251058954968 17.251058910549 138.25551119252 2138.9807050003
520	4978484 139 27088 42951 13.251059038516 17.251059018472 5 7 7 35 245
521	4978623 716 27088 42951 13.1 17.2 42 0 560 2800 1568000
522	4979339 208 27088 42951 13.251059038516 17.251059018472 5 13.251059038516 17.251059018472 76.255295180405 1172.9740085124
524	4979547 139 27068 42917 13.251059025397 17.25105898433 5 7 7 35 245
525	4979686 716 27068 42917 13.1 17.2 42 0 560 2800 1568000
526	4980402 208 27068 42917 13.251059025397 17.25105898433 5 13.251059025397 17.25105898433 76.255295065211 1172.9740049006
528	4980610 223 27034 42900 13.251059012637 17.251058981222 8 7 7 56 392
529	4980833 722 27034 42900 13.1 17.2 42 0 560 4480 2508800
530	4981555 334 27034 42900 13.251059012637 17.251058981222 8 13.251059012637 17.251058981222 124.25545767297 1942.9792085079
532	4981889 252 27017 42883 13.251058990952 17.251058919124 9 7 7 63 441
533	4982141 724 27017 42883 13.1 17.2 42 0 560 5040 2822400
534	4982865 378 27017 42883 13.251058990952 17.251058919124 9 13.251058990952 17.251058919124 138.2555113393 2138.9807092405
536	4983243 136 27105 42934 13.251059045843 17.2510589942 5 7 7 35 245
537	4983379 716 27105 42934 13.1 17.2 42 0 560 2800 1568000
538	4984095 202 27105 42934 13.251059045843 17.2510589942 5 13.251059045843 17.2510589942 76.255295067615 1172.9740049097
540	4984297 2790 27370 44994 13.251680274218 17.808423428189 100 7 7 700 4900
541	4987087 860 27370 44994 13.1 17.8 48 0 7840 60480 324889600
542	4987947 4092 27370 44994 13.251680274218 17.808423428189 100 0.000104229021 17.000054066713 186.23783114323 2613.0196045648
543	4992039 58 27637 30718 13.252361086076 14.004101460783 2 64 64 128 8192
544	4992097 58 27640 30721 13.252361086076 14.004101460783 2 64 64 128 8192
545	4992155 58 27644 30725 13.252361343183 14.004101742182 2 64 64 128 8192
546	4992213 5966 27373 45037 13.251680301062 17.808467494902 207 14 71 9104 567732
547	4998179 434 27489 43613 13.251948632991 17.252613260225 15 71 71 1065 75615
552	4998613 58 27654 30729 13.252361410173 14.004101797383 2 64 64 128 8192
555	4998671 58 27658 30737 13.252361473589 14.004101873019 2 64 64 128 8192
558	4998729 58 27648 30733 13.252361408077 14.004101807354 2 64 64 128 8192
559	4998787 29 27650 27650 13.252361408077 13.252361408077 1 28 28 28 784
563	4998816 2889 27409 45031 13.251724274218 17.808467428189 100 14 64 1450 23500
564	5001705 4311 26636 44537 13.044666799149 17.255173015595 144 0 4.4e-05 0.002112 9.2928e-08
565	5006016 8748 27373 45029 13.251680301062 17.808467377711 294 0 4.4e-05 0.004312 1.89728e-07
566	5014764 5532 27373 45037 13.251680301062 17.808467494902 192 14 71 8039 492117
567	5020296 5532 27373 45037 13.251680301062 17.808467494902 192 14 71 8039 492117
568	5025828 5532 27373 45037 13.251680301062 17.808467494902 192 14 71 8039 492117
569	5031360 13602 26638 45035 13.044666827543 17.808467486171 456 0 4.4e-05 0.006688 2.94272e-07
570	5044962 8484 26638 45039 13.044666827543 17.808467495116 294 14 71 12745 789339
571	5053446 8484 26638 45039 13.044666827543 17.808467495116 294 14 71 12745 789339
572	5061930 8484 26638 45039 13.044666827543 17.808467495116 294 14 71 12745 789339
573	5070414 12421 26665 45048 13.044710684349 17.808467617866 415 0 4.4e-05 0.006072 2.67168e-07
574	5082835 7166 26687 45007 13.044711024281 17.808423617866 248 14 71 10391 634973
575	5090001 7166 26687 45007 13.044711024281 17.808423617866 248 14 71 10391 634973
576	5097167 7166 26687 45007 13.044711024281 17.808423617866 248 14 71 10391 634973
577	5104333 3489 26866 44147 13.150224251075 17.253999324692 123 0 4.4e-05 0.001804 7.9376e-08
578	5107822 2218 26696 44112 13.044711162167 17.253955324692 77 14 71 1819 78077
579	5110040 2195 26696 44112 13.044711162167 17.253955324692 76 14 71 1748 73036
580	5112235 2195 26696 44112 13.044711162167 17.253955324692 76 14 71 1748 73036
581	5114430 4029 26867 44148 13.150224251075 17.253999324692 141 0 4.4e-05 0.002068 9.0992e-08
582	5118459 3518 26697 44113 13.044711162167 17.253955324692 124 14 71 4380 247294
583	5121977 3518 26697 44113 13.044711162167 17.253955324692 124 14 71 4380 247294
584	5125495 3518 26697 44113 13.044711162167 17.253955324692 124 14 71 4380 247294
585	5129013 12906 26625 45028 13.044666724834 17.80846733963 432 0 4.4e-05 0.006336 2.78784e-07
586	5141919 6966 26625 45045 13.044666724834 17.808467588987 241 14 71 10236 628756
587	5148885 6966 26625 45045 13.044666724834 17.808467588987 241 14 71 10236 628756
588	5155851 6966 26625 45045 13.044666724834 17.808467588987 241 14 71 10236 628756
589	5162817 12769 26661 45040 13.044710508308 17.808467529267 427 0 4.4e-05 0.006248 2.74912e-07
590	5175586 7311 26754 45056 13.135993296004 17.808467693922 253 14 71 10803 665023
591	5182897 7311 26754 45056 13.135993296004 17.808467693922 253 14 71 10803 665023
592	5190208 7311 26754 45056 13.135993296004 17.808467693922 253 14 71 10803 665023
593	5197519 12783 26663 45034 13.04471057513 17.808467464767 427 0 4.4e-05 0.006248 2.74912e-07
594	5210302 7342 26689 45052 13.044711028345 17.808467654851 254 14 71 10817 665219
595	5217644 7342 26689 45052 13.044711028345 17.808467654851 254 14 71 10817 665219
596	5224986 7342 26689 45052 13.044711028345 17.808467654851 254 14 71 10817 665219
597	5232328 12766 26664 45030 13.044710629901 17.80846742041 427 0 4.4e-05 0.006248 2.74912e-07
598	5245094 6988 26685 45050 13.044711005484 17.808467646899 242 14 71 10193 624107
599	5252082 6988 26685 45050 13.044711005484 17.808467646899 242 14 71 10193 624107
600	5259070 6988 26685 45050 13.044711005484 17.808467646899 242 14 71 10193 624107
601	5266058 4854 26642 44636 13.044666865222 17.255361503364 162 0 4.4e-05 0.002376 1.04544e-07
602	5270912 1564 26642 44596 13.044666865222 17.255317503364 54 71 71 3834 272214
603	5272476 1564 26642 44596 13.044666865222 17.255317503364 54 71 71 3834 272214
604	5274040 1564 26642 44596 13.044666865222 17.255317503364 54 71 71 3834 272214
605	5275604 12891 26634 45027 13.04466679762 17.808467264275 432 0 4.4e-05 0.006336 2.78784e-07
606	5288495 6929 26634 44925 13.04466679762 17.614100403123 240 14 71 10165 623715
607	5295424 6929 26634 44925 13.04466679762 17.614100403123 240 14 71 10165 623715
608	5302353 6929 26634 44925 13.04466679762 17.614100403123 240 14 71 10165 623715
609	5309282 348 28435 43547 13.254224559259 17.252469216996 12 14 14 168 2352
610	5309630 434 28105 43472 13.253255260944 17.252424722896 15 71 71 1065 75615
611	5310064 6474 26640 45043 13.044666861332 17.808467576477 224 14 71 9086 547904
612	5316538 6474 26640 45043 13.044666861332 17.808467576477 224 14 71 9086 547904
613	5323012 6474 26640 45043 13.044666861332 17.808467576477 224 14 71 9086 547904
614	5329486 2889 27366 44990 13.251680274218 17.808423428189 100 14 71 7043 499255
617	5332375 604 28920 44923 13.2552668475 17.614100398061 21 14 14 294 4116
618	5332979 12418 26662 45041 13.044710539796 17.808467557136 415 0 4.4e-05 0.006072 2.67168e-07
619	5345397 7196 26693 45054 13.044711073606 17.808467677058 249 14 71 10462 640014
620	5352593 7196 26693 45054 13.044711073606 17.808467677058 249 14 71 10462 640014
621	5359789 7196 26693 45054 13.044711073606 17.808467677058 249 14 71 10462 640014
622	5366985 666 27477 44858 13.251948482023 17.614056074893 23 71 71 1633 115943
624	5367651 11640 26640 45033 13.044666861332 17.808467449302 390 0 4.4e-05 0.00572 2.5168e-07
625	5379291 86 28356 43372 13.254179981898 17.252176228797 3 71 71 213 15123
626	5379377 666 28675 44204 13.254825782222 17.254183769886 23 71 71 1633 115943
627	5380043 521 28241 44456 13.253567859982 17.255004905728 18 14 14 252 3528
628	5380564 636 28172 44385 13.253523413116 17.254960437816 22 71 71 1562 110902
631	5381200 602 27602 45047 13.252160879133 17.808467592102 21 14 14 294 4116
632	5381802 690 27479 44981 13.251948518004 17.808423264275 24 71 71 1704 120984
633	5382492 347 27959 43958 13.252922643495 17.253422551086 12 14 14 168 2352
634	5382839 406 27886 43885 13.252878148779 17.253378076827 14 71 71 994 70574
635	5383245 374 26916 44164 13.150268418501 17.253999520619 13 14 14 182 2548
636	5383619 462 26839 44083 13.150223928676 17.253954934018 16 71 71 1136 80656
637	5384081 250 27051 42849 13.251059025126 17.251058904298 9 7 7 63 441
638	5384331 724 27051 42849 13.1 17.2 42 0 560 5040 2822400
639	5385055 374 27051 42849 13.251059025126 17.251058904298 9 13.251059025126 17.251058904298 138.25551143298 2138.980711826
641	5385429 29 30739 30739 14.004101873019 14.004101873019 1 28 28 28 784
642	5385458 1390 26667 44533 13.044710781475 17.255172961989 48 14 64 872 25008
643	5386848 2745 26636 44539 13.044666799149 17.255173028702 95 14 71 4152 257090
644	5389593 2659 26636 44539 13.044666799149 17.255173028702 92 14 71 3939 241967
645	5392252 2659 26636 44539 13.044666799149 17.255173028702 92 14 71 3939 241967
646	5394911 1303 26627 44490 13.044666781475 17.255128961989 45 14 71 3138 222000
647	5396214 58 28857 34420 13.255222545642 15.001531451442 2 71 71 142 10082
648	5396272 86 33158 44083 14.25605639122 17.253954934018 3 71 71 213 15123
650	5396358 376 26691 44660 13.044711054642 17.255361787784 13 14 14 182 2548
651	5396734 404 27149 44583 13.251163038516 17.255317245245 14 71 71 994 70574
652	5397138 115 33363 44285 14.256733372949 17.254632003864 4 71 71 284 20164
653	5397253 232 27546 44490 13.252116698569 17.255128961989 8 71 71 568 40328
654	5397485 607 26799 43334 13.136037380528 17.252012138875 21 14 14 294 4116
655	5398092 720 26732 43276 13.13599294171 17.251967824619 25 71 71 1775 126025
656	5398812 58 28658 40677 13.254825503987 16.254679698139 2 71 71 142 10082
657	5398870 87 27537 44485 13.252116518004 17.255128843685 3 71 71 213 15123
660	5398957 58 32670 44185 14.254354124832 17.254183498603 2 71 71 142 10082
663	5399015 116 30436 42010 14.002139661469 17.002362001463 4 71 71 284 20164
667	5399131 316 27710 38867 13.252501730082 16.002281649111 11 14 64 254 9956
668	5399447 833 27749 42444 13.252545730082 17.036882 31 14 71 2087 146581
669	5400280 512 28289 42444 13.253712024102 17.036882 19 71 71 1349 95779
670	5400792 86 30643 34785 14.00349711423 15.002400784941 3 71 71 213 15123
671	5400878 86 30643 34785 14.00349711423 15.002400784941 3 71 71 213 15123
672	5400964 87 30824 30938 14.004425873019 14.006533873019 3 64 64 192 12288
673	5401051 29 30962 30962 14.006534285335 14.006534285335 1 64 64 64 4096
674	5401080 23 42466 42466 17.036937 17.036937 1 71 71 71 5041
675	5401103 23 42466 42466 17.036937 17.036937 1 71 71 71 5041
vector 676 GradysNetwork.quads[2].wlan[0].mac.dcf.channelAccess.pendingQueue outgoingDataRate:vector ETV
attr interpolationmode linear
attr recordingmode vector
attr source throughput(packetPulled)
attr title "outgoing datarate"
attr unit bps
vector 677 GradysNetwork.quads[2].wlan[0].mac.dcf.channelAccess.pendingQueue incomingDataRate:vector ETV
attr interpolationmode linear
attr recordingmode vector
attr source throughput(packetPushStarted)
attr title "incoming datarate"
attr unit bps
vector 678 GradysNetwork.quads[2].app[0] throughput:vector ETV
attr recordingmode vector
attr source throughput(packetReceived)
attr title throughput
attr unit bps
vector 679 GradysNetwork.quads[3].wlan[0].mac.dcf.channelAccess.pendingQueue outgoingDataRate:vector ETV
attr interpolationmode linear
attr recordingmode vector
attr source throughput(packetPulled)
attr title "outgoing datarate"
attr unit bps
vector 680 GradysNetwork.quads[3].wlan[0].mac.dcf.channelAccess.pendingQueue incomingDataRate:vector ETV
attr interpolationmode linear
attr recordingmode vector
attr source throughput(packetPushStarted)
attr title "incoming datarate"
attr unit bps
vector 681 GradysNetwork.quads[3].app[0] throughput:vector ETV
attr recordingmode vector
attr source throughput(packetReceived)
attr title throughput
attr unit bps
vector 682 GradysNetwork.farm.wlan[0].mac.dcf.channelAccess.pendingQueue outgoingDataRate:vector ETV
attr interpolationmode linear
attr recordingmode vector
attr source throughput(packetPulled)
attr title "outgoing datarate"
attr unit bps
vector 683 GradysNetwork.farm.wlan[0].mac.dcf.channelAccess.pendingQueue incomingDataRate:vector ETV
attr interpolationmode linear
attr recordingmode vector
attr source throughput(packetPushStarted)
attr title "incoming datarate"
attr unit bps
262	5402919 134 45056 45056 17.3 17.808467693922 7 0 11360 11360 129049600
269	5403053 134 45056 45056 17.3 17.808467693922 7 0 11360 11360 129049600
289	5403187 133 45056 45056 17.3 17.808467693922 7 0 2800 2800 7840000
297	5403320 134 45056 45056 17.3 17.808467693922 7 0 11360 11360 129049600
304	5403454 134 45056 45056 17.3 17.808467693922 7 0 11360 11360 129049600
318	5403588 167 45056 45056 17.1 17.808467693922 9 0 5680 5680 32262400
322	5403755 167 45056 45056 17.1 17.808467693922 9 0 5680 5680 32262400
326	5403922 167 45056 45056 17.1 17.808467693922 9 0 5680 5680 32262400
330	5404089 167 45056 45056 17.1 17.808467693922 9 0 5680 5680 32262400
361	5404256 134 45056 45056 17.3 17.808467693922 7 0 11360 11360 129049600
368	5404390 134 45056 45056 17.3 17.808467693922 7 0 11360 11360 129049600
382	5404524 134 45056 45056 17.3 17.808467693922 7 0 11360 11360 129049600
389	5404658 134 45056 45056 17.3 17.808467693922 7 0 11360 11360 129049600
403	5404792 65 45056 45056 17.7 17.808467693922 3 0 5680 5680 32262400
410	5404857 65 45056 45056 17.7 17.808467693922 3 0 5680 5680 32262400
424	5404922 41 45056 45056 17.808467693922 17.808467693922 1 67078.47558404 67078.47558404 67078.47558404 4499521886.6786
431	5404963 41 45056 45056 17.808467693922 17.808467693922 1 67078.47558404 67078.47558404 67078.47558404 4499521886.6786
445	5405004 134 45056 45056 17.3 17.808467693922 7 0 11360 11360 129049600
452	5405138 134 45056 45056 17.3 17.808467693922 7 0 11360 11360 129049600
468	5405272 134 45056 45056 17.3 17.808467693922 7 0 11360 11360 129049600
475	5405406 134 45056 45056 17.3 17.808467693922 7 0 11360 11360 129049600
493	5405540 133 45056 45056 17.3 17.808467693922 7 0 5680 5680 32262400
500	5405673 133 45056 45056 17.3 17.808467693922 7 0 5680 5680 32262400
509	5405806 132 45056 45056 17.3 17.808467693922 7 0 560 560 313600
513	5405938 468 45056 45056 15.3 17.808467693922 27 0 560 560 313600
517	5406406 132 45056 45056 17.3 17.808467693922 7 0 560 560 313600
521	5406538 132 45056 45056 17.3 17.808467693922 7 0 560 560 313600
525	5406670 132 45056 45056 17.3 17.808467693922 7 0 560 560 313600
529	5406802 132 45056 45056 17.3 17.808467693922 7 0 560 560 313600
533	5406934 132 45056 45056 17.3 17.808467693922 7 0 560 560 313600
537	5407066 132 45056 45056 17.3 17.808467693922 7 0 560 560 313600
541	5407198 42 45056 45056 17.808467693922 17.808467693922 1 6613.3708322293 6613.3708322293 6613.3708322293 43736673.764581
638	5407240 132 45056 45056 17.3 17.808467693922 7 0 560 560 313600
676	5407372 2921 45056 45056 0.1 17.808467693922 179 0 0 0 0
677	5410293 2921 45056 45056 0.1 17.808467693922 179 0 0 0 0
678	5413214 2921 45056 45056 0.1 17.808467693922 179 0 0 0 0
679	5416135 2921 45056 45056 0.1 17.808467693922 179 0 0 0 0
680	5419056 2921 45056 45056 0.1 17.808467693922 179 0 0 0 0
681	5421977 2921 45056 45056 0.1 17.808467693922 179 0 0 0 0
682	5424898 2921 45056 45056 0.1 17.808467693922 179 0 0 0 0
683	5427819 2921 45056 45056 0.1 17.808467693922 179 0 0 0 0

