version 3
run Wifi-Farm-100-4U-8O-0-20231130-01:47:40-1927
attr configname Wifi-Farm-100-4U-8O
attr datetime 20231130-01:47:40
attr datetimef 20231130-014740
attr experiment Wifi-Farm-100-4U-8O
attr inifile omnetpp.ini
attr iterationvars ""
attr iterationvarsd ""
attr iterationvarsf ""
attr measurement ""
attr network GradysNetwork
attr processid 1927
attr repetition 0
attr replication #0
attr resultdir results
attr runnumber 0
attr seedset 0
config image-path ../../../../../../workspace/inet4.5/images
config extends Wifi
config description "Simulation with four drones with wifi radio only in a 100ha farm with 8 oxen"
config *.numUAVs 4
config *.numSensors 8
config *.quads[*].protocol.typename QuadrantDroneProtocol
config *.quads[*].protocol.timeoutDuration 5s
config *.quads[0].app[*].startTime "normal(1s, 1s)"
config *.quads[1].app[*].startTime "normal(10s, 1s)"
config *.quads[2].app[*].startTime "normal(20s, 1s)"
config *.quads[3].app[*].startTime "normal(30s, 1s)"
config *.quads[0].app[0].destAddresses "\"quads[1] quads[2] quads[3] sensors[0] sensors[1] sensors[2] sensors[3] sensors[4] sensors[5] sensors[6] sensors[7] groundStation\""
config *.quads[1].app[0].destAddresses "\"quads[0] quads[2] quads[3] sensors[0] sensors[1] sensors[2] sensors[3] sensors[4] sensors[5] sensors[6] sensors[7] groundStation\""
config *.quads[2].app[0].destAddresses "\"quads[0] quads[1] quads[3] sensors[0] sensors[1] sensors[2] sensors[3] sensors[4] sensors[5] sensors[6] sensors[7] groundStation\""
config *.quads[3].app[0].destAddresses "\"quads[1] quads[2] quads[0] sensors[0] sensors[1] sensors[2] sensors[3] sensors[4] sensors[5] sensors[6] sensors[7] groundStation\""
config *.quads[0].mobility.startTime 2s
config *.quads[1].mobility.startTime 4s
config *.quads[2].mobility.startTime 6s
config *.quads[3].mobility.startTime 0s
config *.quads[0].mobility.waypointFile "\"paths/farm-100ha-drone-A.waypoints\""
config *.quads[1].mobility.waypointFile "\"paths/farm-100ha-drone-B.waypoints\""
config *.quads[2].mobility.waypointFile "\"paths/farm-100ha-drone-C.waypoints\""
config *.quads[3].mobility.waypointFile "\"paths/farm-100ha-fence.waypoints\""
config *.quads[*].numFailures 0
config *.sensors[0..7].protocol.typename QuadrantSensorProtocol
config *.sensors[*].app[0].destAddresses "\"quads[0] quads[1] quads[2] quads[3]\""
config *.groundStation.protocol.typename QuadrantGroundProtocol
config *.groundStation.app[0].destAddresses "\"quads[0] quads[1] quads[2] quads[3]\""
config network GradysNetwork
config description "Configure quads, ground stations and sensors for wifi only communication"
config *.quads[*].numApps 1
config *.quads[*].app[0].typename UdpCommunicationApp
config *.quads[*].app[0].localPort 1000
config *.quads[*].app[0].destPort 1000
config *.quads[*].app[0].sendInterval 1s
config *.quads[*].app[0].startTime 1s
config *.quads[*].app[0].stopTime -1s
config *.quads[*].app[0].messageLength 1454Byte
config *.quads[*].protocol.typename QuadrantDroneProtocol
config *.quads[*].mobility.typename DroneMobility
config *.quads[*].mobility.coordinateSystemModule "\"coordinateSystem\""
config *.quads[*].mobility.waypointProximity 1m
config *.quads[*].mobility.speed 10mps
config *.quads[*].mobility.homeLongitude -48.097798deg
config *.quads[*].mobility.homeLatitude -15.630554deg
config *.quads[*].mobility.waypointFile "\"paths/farm-100ha-fence.waypoints\""
config *.groundStation.numApps 1
config *.groundStation.app[0].typename UdpCommunicationApp
config *.groundStation.app[0].destPort 1000
config *.groundStation.app[0].localPort 1000
config *.groundStation.app[0].sendInterval 1s
config *.groundStation.app[0].messageLength 1454Byte
config *.groundStation.app[0].startTime 1s
config *.groundStation.protocol.typename QuadrantGroundProtocol
config *.groundStation.mobility.typename StationaryMobility
config *.groundStation.mobility.coordinateSystemModule "\"coordinateSystem\""
config *.groundStation.mobility.initialAltitude 0m
config *.groundStation.mobility.initialLatitude -15.630554deg
config *.groundStation.mobility.initialLongitude -48.097798deg
config *.numSensors 8
config *.sensors[*].numApps 1
config *.sensors[*].app[0].typename UdpCommunicationApp
config *.sensors[*].app[0].destPort 1000
config *.sensors[*].app[0].localPort 1000
config *.sensors[*].app[0].sendInterval 2s
config *.sensors[*].app[0].startTime exponential(1s)
config *.sensors[*].app[0].messageLength 1454Byte
config *.sensors[0..2].protocol.typename QuadrantSensorProtocol
config *.sensors[*].mobility.typename LinearMobility
config *.sensors[*].mobility.coordinateSystemModule "\"coordinateSystem\""
config *.sensors[*].mobility.constraintAreaMinX 10m
config *.sensors[*].mobility.constraintAreaMinY 10m
config *.sensors[*].mobility.constraintAreaMinZ 0m
config *.sensors[*].mobility.constraintAreaMaxX 150m
config *.sensors[*].mobility.constraintAreaMaxY 150m
config *.sensors[*].mobility.constraintAreaMaxZ 0m
config *.sensors[*].mobility.speed 5mps
config *.sensors[*].mobility.initialMovementHeading 10deg
config description "Setup visualisation, scene origin, sensors"
config cmdenv-status-frequency 10s
config cmdenv-output-file results/0.out
config allow-object-stealing-on-deletion true
config *.visualizer.osgVisualizer.typename IntegratedOsgVisualizer
config *.visualizer.osgVisualizer.sceneVisualizer.typename SceneOsgEarthVisualizer
config *.visualizer.osgVisualizer.sceneVisualizer.mapFile "\"map.earth\""
config *.visualizer.*.sceneVisualizer.sceneImageSize 100000m
config *.visualizer.*.sceneVisualizer.sceneMinX -1000m
config *.visualizer.*.sceneVisualizer.sceneMinY -1000m
config *.visualizer.*.sceneVisualizer.sceneMinZ -1000m
config *.visualizer.*.sceneVisualizer.sceneMaxX 1000m
config *.visualizer.*.sceneVisualizer.sceneMaxY 1000m
config *.visualizer.*.sceneVisualizer.sceneMaxZ 1000m
config *.visualizer.*.physicalLinkVisualizer.lineShift 0
config *.visualizer.*.dataLinkVisualizer.lineShift 0
config *.visualizer.*.networkRouteVisualizer.lineShift 0
config *.visualizer.*.networkNodeVisualizer.displayModuleName true
config *.visualizer.*.statisticVisualizer.signalName "\"dataLoad\""
config *.visualizer.*.statisticVisualizer.format "\"(%v)\""
config *.visualizer.*.statisticVisualizer.textColor "\"red\""
config *.visualizer.*.statisticVisualizer.font "\"Courier New, 12px, bold\""
config *.visualizer.*.statisticVisualizer.opacity 1
config *.visualizer.*.mobilityVisualizer.displayMobility true
config *.visualizer.*.mobilityVisualizer.displayPositions true
config *.visualizer.*.mobilityVisualizer.displayOrientations true
config *.visualizer.*.mobilityVisualizer.displayVelocities true
config *.visualizer.*.mobilityVisualizer.displayMovementTrails true
config *.visualizer.*.mobilityVisualizer.animationSpeed 10
config *.environment.ground.typename FlatGround
config *.quads[*].osgModel "\"3d/drone.ive.10.scale.0,0,90.rot\""
config **.mobility.initFromDisplayString false
config *.coordinateSystem.sceneLongitude -48.09779867095303deg
config *.coordinateSystem.sceneLatitude -15.630554093095277deg
config *.coordinateSystem.sceneHeading 0deg
config *.*[*].mobility.constraintAreaMinX -1000m
config *.*[*].mobility.constraintAreaMinY -1000m
config *.*[*].mobility.constraintAreaMinZ -1000m
config *.*[*].mobility.constraintAreaMaxX 1000m
config *.*[*].mobility.constraintAreaMaxY 1000m
config *.*[*].mobility.constraintAreaMaxZ 1000m
config *.*[*].wlan[*].radio.displayCommunicationRange true
config *.*[*].wlan[0].radio.displayInterferenceRange false
config *.sensor*.wlan[0].radio.energyConsumer.typename SensorStateBasedEpEnergyConsumer
config *.sensor*.wlan[0].radio.energyConsumer.offPowerConsumption 0mW
config *.sensor*.wlan[0].radio.energyConsumer.sleepPowerConsumption 1mW
config *.sensor*.wlan[0].radio.energyConsumer.switchingPowerConsumption 1mW
config *.sensor*.wlan[0].radio.energyConsumer.receiverIdlePowerConsumption 2mW
config *.sensor*.wlan[0].radio.energyConsumer.receiverBusyPowerConsumption 5mW
config *.sensor*.wlan[0].radio.energyConsumer.receiverReceivingPowerConsumption 10mW
config *.sensor*.wlan[0].radio.energyConsumer.transmitterIdlePowerConsumption 2mW
config *.sensor*.wlan[0].radio.energyConsumer.transmitterTransmittingPowerConsumption 100mW
config *.sensor*.energyStorage.typename IdealEpEnergyStorage
config *.farm.app[0].typename UdpCommunicationApp
config *.farm.app[0].localPort 1000
config *.farm.app[0].destPort 1000
config *.farm.app[0].sendInterval 1s
config *.farm.app[0].startTime 1s
config *.farm.app[0].stopTime -1s
config *.farm.app[0].messageLength 1454Byte
config *.farm.mobility.coordinateSystemModule "\"coordinateSystem\""
config *.farm.mobility.initialAltitude 0m
config *.farm.mobility.initialLatitude -15.630554deg
config *.farm.mobility.initialLongitude -48.097798deg

par GradysNetwork.visualizer.canvasVisualizer.sceneVisualizer typename "\"inet.visualizer.canvas.scene.SceneCanvasVisualizer\""
par GradysNetwork.visualizer.canvasVisualizer.sceneVisualizer visualizationTargetModule "\"^.^.^\""
par GradysNetwork.visualizer.canvasVisualizer.sceneVisualizer visualizationSubjectModule "\"^.^.^\""
par GradysNetwork.visualizer.canvasVisualizer.sceneVisualizer tags "\"\""
par GradysNetwork.visualizer.canvasVisualizer.sceneVisualizer physicalEnvironmentModule "\"physicalEnvironment\""
par GradysNetwork.visualizer.canvasVisualizer.sceneVisualizer networkNodeVisualizerModule "\"^.networkNodeVisualizer\""
par GradysNetwork.visualizer.canvasVisualizer.sceneVisualizer axisLength "nan m"
attr mutable ""
attr unit m
par GradysNetwork.visualizer.canvasVisualizer.sceneVisualizer animationSpeed 0
par GradysNetwork.visualizer.canvasVisualizer.sceneVisualizer sceneMinX -1000m
attr unit m
par GradysNetwork.visualizer.canvasVisualizer.sceneVisualizer sceneMinY -1000m
attr unit m
par GradysNetwork.visualizer.canvasVisualizer.sceneVisualizer sceneMinZ -1000m
attr unit m
par GradysNetwork.visualizer.canvasVisualizer.sceneVisualizer sceneMaxX 1000m
attr unit m
par GradysNetwork.visualizer.canvasVisualizer.sceneVisualizer sceneMaxY 1000m
attr unit m
par GradysNetwork.visualizer.canvasVisualizer.sceneVisualizer sceneMaxZ 1000m
attr unit m
par GradysNetwork.visualizer.canvasVisualizer.sceneVisualizer zIndex 0
par GradysNetwork.visualizer.canvasVisualizer.sceneVisualizer viewAngle "\"x right y down z out\""
attr mutable ""
par GradysNetwork.visualizer.canvasVisualizer.sceneVisualizer viewScale "\"1 1\""
attr mutable ""
par GradysNetwork.visualizer.canvasVisualizer.sceneVisualizer viewTranslation "\"0 0\""
attr mutable ""
par GradysNetwork.visualizer.canvasVisualizer.sceneVisualizer descriptionFigure "\"\""
par GradysNetwork.visualizer.canvasVisualizer.physicalEnvironmentVisualizer typename "\"inet.visualizer.canvas.environment.PhysicalEnvironmentCanvasVisualizer\""
par GradysNetwork.visualizer.canvasVisualizer.physicalEnvironmentVisualizer visualizationTargetModule "\"^.^.^\""
par GradysNetwork.visualizer.canvasVisualizer.physicalEnvironmentVisualizer visualizationSubjectModule "\"^.^.^\""
par GradysNetwork.visualizer.canvasVisualizer.physicalEnvironmentVisualizer tags "\"\""
par GradysNetwork.visualizer.canvasVisualizer.physicalEnvironmentVisualizer physicalEnvironmentModule "\"physicalEnvironment\""
par GradysNetwork.visualizer.canvasVisualizer.physicalEnvironmentVisualizer displayObjects true
par GradysNetwork.visualizer.canvasVisualizer.physicalEnvironmentVisualizer zIndex 0
par GradysNetwork.visualizer.canvasVisualizer.networkNodeVisualizer typename "\"inet.visualizer.canvas.scene.NetworkNodeCanvasVisualizer\""
par GradysNetwork.visualizer.canvasVisualizer.networkNodeVisualizer visualizationTargetModule "\"^.^.^\""
par GradysNetwork.visualizer.canvasVisualizer.networkNodeVisualizer visualizationSubjectModule "\"^.^.^\""
par GradysNetwork.visualizer.canvasVisualizer.networkNodeVisualizer tags "\"\""
par GradysNetwork.visualizer.canvasVisualizer.networkNodeVisualizer nodeFilter "\"*\""
attr mutable ""
par GradysNetwork.visualizer.canvasVisualizer.networkNodeVisualizer annotationSpacing 4
par GradysNetwork.visualizer.canvasVisualizer.networkNodeVisualizer placementPenalty 10
par GradysNetwork.visualizer.canvasVisualizer.networkNodeVisualizer zIndex 0
par GradysNetwork.visualizer.canvasVisualizer.networkConnectionVisualizer typename "\"inet.visualizer.canvas.scene.NetworkConnectionCanvasVisualizer\""
par GradysNetwork.visualizer.canvasVisualizer.networkConnectionVisualizer visualizationTargetModule "\"^.^.^\""
par GradysNetwork.visualizer.canvasVisualizer.networkConnectionVisualizer visualizationSubjectModule "\"^.^.^\""
par GradysNetwork.visualizer.canvasVisualizer.networkConnectionVisualizer tags "\"\""
par GradysNetwork.visualizer.canvasVisualizer.networkConnectionVisualizer displayNetworkConnections true
par GradysNetwork.visualizer.canvasVisualizer.networkConnectionVisualizer nodeFilter "\"\""
attr mutable ""
par GradysNetwork.visualizer.canvasVisualizer.networkConnectionVisualizer lineColor "\"black\""
par GradysNetwork.visualizer.canvasVisualizer.networkConnectionVisualizer lineStyle "\"solid\""
par GradysNetwork.visualizer.canvasVisualizer.networkConnectionVisualizer lineWidth 1
par GradysNetwork.visualizer.canvasVisualizer.networkConnectionVisualizer zIndex 0
par GradysNetwork.visualizer.canvasVisualizer.mobilityVisualizer typename "\"inet.visualizer.canvas.mobility.MobilityCanvasVisualizer\""
par GradysNetwork.visualizer.canvasVisualizer.mobilityVisualizer visualizationTargetModule "\"^.^.^\""
par GradysNetwork.visualizer.canvasVisualizer.mobilityVisualizer visualizationSubjectModule "\"^.^.^\""
par GradysNetwork.visualizer.canvasVisualizer.mobilityVisualizer tags "\"\""
par GradysNetwork.visualizer.canvasVisualizer.mobilityVisualizer networkNodeVisualizerModule "\"^.networkNodeVisualizer\""
par GradysNetwork.visualizer.canvasVisualizer.mobilityVisualizer displayMobility true
par GradysNetwork.visualizer.canvasVisualizer.mobilityVisualizer animationSpeed 10
par GradysNetwork.visualizer.canvasVisualizer.mobilityVisualizer moduleFilter "\"**.mobility\""
attr mutable ""
par GradysNetwork.visualizer.canvasVisualizer.mobilityVisualizer displayPositions true
par GradysNetwork.visualizer.canvasVisualizer.mobilityVisualizer positionCircleRadius 4
par GradysNetwork.visualizer.canvasVisualizer.mobilityVisualizer positionCircleLineWidth 1
par GradysNetwork.visualizer.canvasVisualizer.mobilityVisualizer positionCircleLineColor "\"dark\""
attr enum light,dark
par GradysNetwork.visualizer.canvasVisualizer.mobilityVisualizer positionCircleFillColor "\"dark\""
attr enum light,dark
par GradysNetwork.visualizer.canvasVisualizer.mobilityVisualizer displayOrientations true
par GradysNetwork.visualizer.canvasVisualizer.mobilityVisualizer orientationPieRadius 32
par GradysNetwork.visualizer.canvasVisualizer.mobilityVisualizer orientationPieSize 0.2
par GradysNetwork.visualizer.canvasVisualizer.mobilityVisualizer orientationPieOpacity 0.25
par GradysNetwork.visualizer.canvasVisualizer.mobilityVisualizer orientationLineColor "\"black\""
par GradysNetwork.visualizer.canvasVisualizer.mobilityVisualizer orientationLineStyle "\"solid\""
par GradysNetwork.visualizer.canvasVisualizer.mobilityVisualizer orientationLineWidth 1
par GradysNetwork.visualizer.canvasVisualizer.mobilityVisualizer orientationFillColor "\"blue\""
par GradysNetwork.visualizer.canvasVisualizer.mobilityVisualizer displayVelocities true
par GradysNetwork.visualizer.canvasVisualizer.mobilityVisualizer velocityArrowScale 1
par GradysNetwork.visualizer.canvasVisualizer.mobilityVisualizer velocityLineColor "\"black\""
par GradysNetwork.visualizer.canvasVisualizer.mobilityVisualizer velocityLineStyle "\"solid\""
par GradysNetwork.visualizer.canvasVisualizer.mobilityVisualizer velocityLineWidth 1
par GradysNetwork.visualizer.canvasVisualizer.mobilityVisualizer displayMovementTrails true
par GradysNetwork.visualizer.canvasVisualizer.mobilityVisualizer movementTrailLineColor "\"dark\""
attr enum light,dark
par GradysNetwork.visualizer.canvasVisualizer.mobilityVisualizer movementTrailLineStyle "\"solid\""
par GradysNetwork.visualizer.canvasVisualizer.mobilityVisualizer movementTrailLineWidth 1
par GradysNetwork.visualizer.canvasVisualizer.mobilityVisualizer trailLength 100
par GradysNetwork.visualizer.canvasVisualizer.mobilityVisualizer zIndex 0
par GradysNetwork.visualizer.canvasVisualizer.statisticVisualizer typename "\"inet.visualizer.canvas.common.StatisticCanvasVisualizer\""
par GradysNetwork.visualizer.canvasVisualizer.statisticVisualizer visualizationTargetModule "\"^.^.^\""
par GradysNetwork.visualizer.canvasVisualizer.statisticVisualizer visualizationSubjectModule "\"^.^.^\""
par GradysNetwork.visualizer.canvasVisualizer.statisticVisualizer tags "\"\""
par GradysNetwork.visualizer.canvasVisualizer.statisticVisualizer networkNodeVisualizerModule "\"^.networkNodeVisualizer\""
par GradysNetwork.visualizer.canvasVisualizer.statisticVisualizer displayStatistics true
par GradysNetwork.visualizer.canvasVisualizer.statisticVisualizer signalName "\"dataLoad\""
par GradysNetwork.visualizer.canvasVisualizer.statisticVisualizer statisticName "\"dataLoad\""
par GradysNetwork.visualizer.canvasVisualizer.statisticVisualizer statisticUnit "\"\""
par GradysNetwork.visualizer.canvasVisualizer.statisticVisualizer statisticExpression "\"\""
par GradysNetwork.visualizer.canvasVisualizer.statisticVisualizer sourceFilter "\"**\""
attr mutable ""
par GradysNetwork.visualizer.canvasVisualizer.statisticVisualizer format "\"(%v)\""
attr mutable ""
par GradysNetwork.visualizer.canvasVisualizer.statisticVisualizer unit "\"\""
par GradysNetwork.visualizer.canvasVisualizer.statisticVisualizer font "\"Courier New, 12px, bold\""
par GradysNetwork.visualizer.canvasVisualizer.statisticVisualizer textColor "\"red\""
par GradysNetwork.visualizer.canvasVisualizer.statisticVisualizer backgroundColor "\"white\""
par GradysNetwork.visualizer.canvasVisualizer.statisticVisualizer opacity 1
par GradysNetwork.visualizer.canvasVisualizer.statisticVisualizer placementHint "\"top\""
par GradysNetwork.visualizer.canvasVisualizer.statisticVisualizer placementPriority 0
par GradysNetwork.visualizer.canvasVisualizer.statisticVisualizer zIndex 10
par GradysNetwork.visualizer.canvasVisualizer.statisticVisualizer propertyName "\"\""
par GradysNetwork.visualizer.canvasVisualizer.statisticVisualizer propertyIndex "\"\""
par GradysNetwork.visualizer.canvasVisualizer.infoVisualizer typename "\"inet.visualizer.canvas.common.InfoCanvasVisualizer\""
par GradysNetwork.visualizer.canvasVisualizer.infoVisualizer visualizationTargetModule "\"^.^.^\""
par GradysNetwork.visualizer.canvasVisualizer.infoVisualizer visualizationSubjectModule "\"^.^.^\""
par GradysNetwork.visualizer.canvasVisualizer.infoVisualizer tags "\"\""
par GradysNetwork.visualizer.canvasVisualizer.infoVisualizer networkNodeVisualizerModule "\"^.networkNodeVisualizer\""
par GradysNetwork.visualizer.canvasVisualizer.infoVisualizer displayInfos true
par GradysNetwork.visualizer.canvasVisualizer.infoVisualizer modules "\"\""
attr mutable ""
par GradysNetwork.visualizer.canvasVisualizer.infoVisualizer format "\"%t\""
attr mutable ""
par GradysNetwork.visualizer.canvasVisualizer.infoVisualizer font "\"<default>\""
par GradysNetwork.visualizer.canvasVisualizer.infoVisualizer textColor "\"black\""
par GradysNetwork.visualizer.canvasVisualizer.infoVisualizer backgroundColor "\"white\""
par GradysNetwork.visualizer.canvasVisualizer.infoVisualizer opacity 1
par GradysNetwork.visualizer.canvasVisualizer.infoVisualizer placementHint "\"top\""
par GradysNetwork.visualizer.canvasVisualizer.infoVisualizer placementPriority 0
par GradysNetwork.visualizer.canvasVisualizer.infoVisualizer zIndex 10
par GradysNetwork.visualizer.canvasVisualizer.energyStorageVisualizer typename "\"inet.visualizer.canvas.power.EnergyStorageCanvasVisualizer\""
par GradysNetwork.visualizer.canvasVisualizer.energyStorageVisualizer visualizationTargetModule "\"^.^.^\""
par GradysNetwork.visualizer.canvasVisualizer.energyStorageVisualizer visualizationSubjectModule "\"^.^.^\""
par GradysNetwork.visualizer.canvasVisualizer.energyStorageVisualizer tags "\"\""
par GradysNetwork.visualizer.canvasVisualizer.energyStorageVisualizer networkNodeVisualizerModule "\"^.networkNodeVisualizer\""
par GradysNetwork.visualizer.canvasVisualizer.energyStorageVisualizer displayEnergyStorages false
par GradysNetwork.visualizer.canvasVisualizer.energyStorageVisualizer energyStorageFilter "\"**\""
par GradysNetwork.visualizer.canvasVisualizer.energyStorageVisualizer color "\"green\""
par GradysNetwork.visualizer.canvasVisualizer.energyStorageVisualizer width 8
par GradysNetwork.visualizer.canvasVisualizer.energyStorageVisualizer height 24
par GradysNetwork.visualizer.canvasVisualizer.energyStorageVisualizer spacing 2
par GradysNetwork.visualizer.canvasVisualizer.energyStorageVisualizer placementHint "\"right\""
par GradysNetwork.visualizer.canvasVisualizer.energyStorageVisualizer placementPriority 0
par GradysNetwork.visualizer.canvasVisualizer.energyStorageVisualizer zIndex 10
par GradysNetwork.visualizer.canvasVisualizer.mediumVisualizer typename "\"inet.visualizer.canvas.physicallayer.MediumCanvasVisualizer\""
par GradysNetwork.visualizer.canvasVisualizer.mediumVisualizer visualizationTargetModule "\"^.^.^\""
par GradysNetwork.visualizer.canvasVisualizer.mediumVisualizer visualizationSubjectModule "\"^.^.^\""
par GradysNetwork.visualizer.canvasVisualizer.mediumVisualizer tags "\"\""
par GradysNetwork.visualizer.canvasVisualizer.mediumVisualizer mediumModule "\"radioMedium\""
par GradysNetwork.visualizer.canvasVisualizer.mediumVisualizer networkNodeVisualizerModule "\"^.networkNodeVisualizer\""
par GradysNetwork.visualizer.canvasVisualizer.mediumVisualizer nodeFilter "\"*\""
attr mutable ""
par GradysNetwork.visualizer.canvasVisualizer.mediumVisualizer interfaceFilter "\"*\""
attr mutable ""
par GradysNetwork.visualizer.canvasVisualizer.mediumVisualizer packetFilter "(omnetpp::cValueHolder)holder: \"*\""
attr mutable ""
par GradysNetwork.visualizer.canvasVisualizer.mediumVisualizer displaySignals false
par GradysNetwork.visualizer.canvasVisualizer.mediumVisualizer signalColor "\"dark\""
attr enum light,dark
par GradysNetwork.visualizer.canvasVisualizer.mediumVisualizer signalPropagationAnimationSpeed "nan "
attr mutable ""
par GradysNetwork.visualizer.canvasVisualizer.mediumVisualizer signalPropagationAnimationTime 1s
attr unit s
par GradysNetwork.visualizer.canvasVisualizer.mediumVisualizer signalPropagationAdditionalTime 0s
attr unit s
par GradysNetwork.visualizer.canvasVisualizer.mediumVisualizer signalTransmissionAnimationSpeed "nan "
attr mutable ""
par GradysNetwork.visualizer.canvasVisualizer.mediumVisualizer signalTransmissionAnimationTime 1s
attr unit s
par GradysNetwork.visualizer.canvasVisualizer.mediumVisualizer signalAnimationSpeedChangeTimeMode "\"realTime\""
attr enum realTime,animationTime,simulationTime
par GradysNetwork.visualizer.canvasVisualizer.mediumVisualizer signalAnimationSpeedChangeTime 1s
attr unit s
par GradysNetwork.visualizer.canvasVisualizer.mediumVisualizer displaySignalDepartures false
par GradysNetwork.visualizer.canvasVisualizer.mediumVisualizer signalDepartureImage "\"misc/signal_departure.png\""
par GradysNetwork.visualizer.canvasVisualizer.mediumVisualizer signalDeparturePlacementHint "\"topCenter\""
par GradysNetwork.visualizer.canvasVisualizer.mediumVisualizer signalDeparturePlacementPriority 1
par GradysNetwork.visualizer.canvasVisualizer.mediumVisualizer displaySignalArrivals false
par GradysNetwork.visualizer.canvasVisualizer.mediumVisualizer signalArrivalImage "\"misc/signal_arrival.png\""
par GradysNetwork.visualizer.canvasVisualizer.mediumVisualizer signalArrivalPlacementHint "\"topCenter\""
par GradysNetwork.visualizer.canvasVisualizer.mediumVisualizer signalArrivalPlacementPriority -1
par GradysNetwork.visualizer.canvasVisualizer.mediumVisualizer displayCommunicationRanges false
par GradysNetwork.visualizer.canvasVisualizer.mediumVisualizer communicationRangeLineColor "\"blue\""
par GradysNetwork.visualizer.canvasVisualizer.mediumVisualizer communicationRangeLineStyle "\"solid\""
par GradysNetwork.visualizer.canvasVisualizer.mediumVisualizer communicationRangeLineWidth 1
par GradysNetwork.visualizer.canvasVisualizer.mediumVisualizer displayInterferenceRanges false
par GradysNetwork.visualizer.canvasVisualizer.mediumVisualizer interferenceRangeLineColor "\"gray\""
par GradysNetwork.visualizer.canvasVisualizer.mediumVisualizer interferenceRangeLineStyle "\"solid\""
par GradysNetwork.visualizer.canvasVisualizer.mediumVisualizer interferenceRangeLineWidth 1
par GradysNetwork.visualizer.canvasVisualizer.mediumVisualizer autoPowerAxis true
par GradysNetwork.visualizer.canvasVisualizer.mediumVisualizer signalMinPower "inf dBmW"
attr unit dBmW
par GradysNetwork.visualizer.canvasVisualizer.mediumVisualizer signalMaxPower 0dBmW
attr unit dBmW
par GradysNetwork.visualizer.canvasVisualizer.mediumVisualizer signalMinPowerDensity "inf dBmWpMHz"
attr unit dBmWpMHz
par GradysNetwork.visualizer.canvasVisualizer.mediumVisualizer signalMaxPowerDensity "-inf dBmWpMHz"
attr unit dBmWpMHz
par GradysNetwork.visualizer.canvasVisualizer.mediumVisualizer autoTimeAxis true
par GradysNetwork.visualizer.canvasVisualizer.mediumVisualizer signalMinTime 0s
attr unit s
par GradysNetwork.visualizer.canvasVisualizer.mediumVisualizer signalMaxTime 0s
attr unit s
par GradysNetwork.visualizer.canvasVisualizer.mediumVisualizer autoFrequencyAxis true
par GradysNetwork.visualizer.canvasVisualizer.mediumVisualizer signalMinFrequency "inf Hz"
attr unit Hz
par GradysNetwork.visualizer.canvasVisualizer.mediumVisualizer signalMaxFrequency "-inf Hz"
attr unit Hz
par GradysNetwork.visualizer.canvasVisualizer.mediumVisualizer displayMainPowerDensityMap false
par GradysNetwork.visualizer.canvasVisualizer.mediumVisualizer mainPowerDensityMapPixmapDensity 1
par GradysNetwork.visualizer.canvasVisualizer.mediumVisualizer mainPowerDensityMapMinX 0
par GradysNetwork.visualizer.canvasVisualizer.mediumVisualizer mainPowerDensityMapMaxX "nan "
par GradysNetwork.visualizer.canvasVisualizer.mediumVisualizer mainPowerDensityMapMinY 0
par GradysNetwork.visualizer.canvasVisualizer.mediumVisualizer mainPowerDensityMapMaxY "nan "
par GradysNetwork.visualizer.canvasVisualizer.mediumVisualizer mainPowerDensityMapZ 0
par GradysNetwork.visualizer.canvasVisualizer.mediumVisualizer mainPowerDensityMapFigureXTickCount 3
par GradysNetwork.visualizer.canvasVisualizer.mediumVisualizer mainPowerDensityMapFigureYTickCount 3
par GradysNetwork.visualizer.canvasVisualizer.mediumVisualizer displayPowerDensityMaps false
par GradysNetwork.visualizer.canvasVisualizer.mediumVisualizer powerDensityMapMode "\"auto\""
attr enum total,signal,auto
par GradysNetwork.visualizer.canvasVisualizer.mediumVisualizer powerDensityMapPixelMode "\"mean\""
attr enum sample,partition,mean
par GradysNetwork.visualizer.canvasVisualizer.mediumVisualizer powerDensityMapApproximationSize 10
par GradysNetwork.visualizer.canvasVisualizer.mediumVisualizer powerDensityMapCenterFrequency "nan Hz"
attr mutable ""
attr unit Hz
par GradysNetwork.visualizer.canvasVisualizer.mediumVisualizer powerDensityMapBandwidth 0Hz
attr mutable ""
attr unit Hz
par GradysNetwork.visualizer.canvasVisualizer.mediumVisualizer powerDensityMapFigureWidth 200
par GradysNetwork.visualizer.canvasVisualizer.mediumVisualizer powerDensityMapFigureHeight 120
par GradysNetwork.visualizer.canvasVisualizer.mediumVisualizer powerDensityMapPixmapWidth 200
par GradysNetwork.visualizer.canvasVisualizer.mediumVisualizer powerDensityMapPixmapHeight 120
par GradysNetwork.visualizer.canvasVisualizer.mediumVisualizer powerDensityMapZ 0
par GradysNetwork.visualizer.canvasVisualizer.mediumVisualizer powerDensityMapFigureXTickCount 3
par GradysNetwork.visualizer.canvasVisualizer.mediumVisualizer powerDensityMapFigureYTickCount 3
par GradysNetwork.visualizer.canvasVisualizer.mediumVisualizer displaySpectrums false
par GradysNetwork.visualizer.canvasVisualizer.mediumVisualizer spectrumMode "\"auto\""
attr enum total,signal,auto
par GradysNetwork.visualizer.canvasVisualizer.mediumVisualizer spectrumFigureWidth 200
par GradysNetwork.visualizer.canvasVisualizer.mediumVisualizer spectrumFigureHeight 120
par GradysNetwork.visualizer.canvasVisualizer.mediumVisualizer spectrumFigureXTickCount 3
par GradysNetwork.visualizer.canvasVisualizer.mediumVisualizer spectrumFigureYTickCount 5
par GradysNetwork.visualizer.canvasVisualizer.mediumVisualizer spectrumFigureInterpolationSize 5
par GradysNetwork.visualizer.canvasVisualizer.mediumVisualizer spectrumPlacementHint "\"bottomCenter\""
par GradysNetwork.visualizer.canvasVisualizer.mediumVisualizer spectrumPlacementPriority -1
par GradysNetwork.visualizer.canvasVisualizer.mediumVisualizer displaySpectrograms false
par GradysNetwork.visualizer.canvasVisualizer.mediumVisualizer spectrogramMode "\"auto\""
attr enum total,signal,auto
par GradysNetwork.visualizer.canvasVisualizer.mediumVisualizer spectrogramPixelMode "\"mean\""
attr enum sample,partition,mean
par GradysNetwork.visualizer.canvasVisualizer.mediumVisualizer spectrogramFigureWidth 200
par GradysNetwork.visualizer.canvasVisualizer.mediumVisualizer spectrogramFigureHeight 120
par GradysNetwork.visualizer.canvasVisualizer.mediumVisualizer spectrogramPixmapWidth 200
par GradysNetwork.visualizer.canvasVisualizer.mediumVisualizer spectrogramPixmapHeight 120
par GradysNetwork.visualizer.canvasVisualizer.mediumVisualizer spectrogramFigureXTickCount 3
par GradysNetwork.visualizer.canvasVisualizer.mediumVisualizer spectrogramFigureYTickCount 5
par GradysNetwork.visualizer.canvasVisualizer.mediumVisualizer spectrogramPlacementHint "\"bottomCenter\""
par GradysNetwork.visualizer.canvasVisualizer.mediumVisualizer spectrogramPlacementPriority -1
par GradysNetwork.visualizer.canvasVisualizer.mediumVisualizer zIndex 0
par GradysNetwork.visualizer.canvasVisualizer.mediumVisualizer signalShape "\"ring\""
attr enum ring,sphere
par GradysNetwork.visualizer.canvasVisualizer.mediumVisualizer signalOpacity 0.5
par GradysNetwork.visualizer.canvasVisualizer.mediumVisualizer signalRingCount 20
par GradysNetwork.visualizer.canvasVisualizer.mediumVisualizer signalRingSize 50m
attr unit m
par GradysNetwork.visualizer.canvasVisualizer.mediumVisualizer signalFadingDistance 50m
attr unit m
par GradysNetwork.visualizer.canvasVisualizer.mediumVisualizer signalFadingFactor 1.2
par GradysNetwork.visualizer.canvasVisualizer.mediumVisualizer signalWaveCount 20
par GradysNetwork.visualizer.canvasVisualizer.mediumVisualizer signalWaveLength 50m
attr unit m
par GradysNetwork.visualizer.canvasVisualizer.mediumVisualizer signalWaveWidth 10m
attr unit m
par GradysNetwork.visualizer.canvasVisualizer.mediumVisualizer signalWaveFadingAnimationSpeedFactor 1
par GradysNetwork.visualizer.canvasVisualizer.mediumVisualizer displayCommunicationHeat false
par GradysNetwork.visualizer.canvasVisualizer.obstacleLossVisualizer typename "\"inet.visualizer.canvas.physicallayer.TracingObstacleLossCanvasVisualizer\""
par GradysNetwork.visualizer.canvasVisualizer.obstacleLossVisualizer visualizationTargetModule "\"^.^.^\""
par GradysNetwork.visualizer.canvasVisualizer.obstacleLossVisualizer visualizationSubjectModule "\"^.^.^\""
par GradysNetwork.visualizer.canvasVisualizer.obstacleLossVisualizer tags "\"\""
par GradysNetwork.visualizer.canvasVisualizer.obstacleLossVisualizer displayIntersections false
par GradysNetwork.visualizer.canvasVisualizer.obstacleLossVisualizer intersectionLineColor "\"red\""
par GradysNetwork.visualizer.canvasVisualizer.obstacleLossVisualizer intersectionLineStyle "\"solid\""
par GradysNetwork.visualizer.canvasVisualizer.obstacleLossVisualizer intersectionLineWidth 1
par GradysNetwork.visualizer.canvasVisualizer.obstacleLossVisualizer displayFaceNormalVectors false
par GradysNetwork.visualizer.canvasVisualizer.obstacleLossVisualizer faceNormalLineColor "\"grey\""
par GradysNetwork.visualizer.canvasVisualizer.obstacleLossVisualizer faceNormalLineStyle "\"solid\""
par GradysNetwork.visualizer.canvasVisualizer.obstacleLossVisualizer faceNormalLineWidth 1
par GradysNetwork.visualizer.canvasVisualizer.obstacleLossVisualizer fadeOutMode "\"realTime\""
attr enum realTime,animationTime,simulationTime
par GradysNetwork.visualizer.canvasVisualizer.obstacleLossVisualizer fadeOutTime 1s
attr unit s
par GradysNetwork.visualizer.canvasVisualizer.obstacleLossVisualizer fadeOutAnimationSpeed 0
par GradysNetwork.visualizer.canvasVisualizer.obstacleLossVisualizer zIndex 0
par GradysNetwork.visualizer.canvasVisualizer.packetDropVisualizer typename "\"inet.visualizer.canvas.common.PacketDropCanvasVisualizer\""
par GradysNetwork.visualizer.canvasVisualizer.packetDropVisualizer visualizationTargetModule "\"^.^.^\""
par GradysNetwork.visualizer.canvasVisualizer.packetDropVisualizer visualizationSubjectModule "\"^.^.^\""
par GradysNetwork.visualizer.canvasVisualizer.packetDropVisualizer tags "\"\""
par GradysNetwork.visualizer.canvasVisualizer.packetDropVisualizer displayPacketDrops false
par GradysNetwork.visualizer.canvasVisualizer.packetDropVisualizer nodeFilter "\"*\""
attr mutable ""
par GradysNetwork.visualizer.canvasVisualizer.packetDropVisualizer interfaceFilter "\"*\""
attr mutable ""
par GradysNetwork.visualizer.canvasVisualizer.packetDropVisualizer packetFilter "(omnetpp::cValueHolder)holder: \"*\""
attr mutable ""
par GradysNetwork.visualizer.canvasVisualizer.packetDropVisualizer detailsFilter "\"*\""
attr mutable ""
par GradysNetwork.visualizer.canvasVisualizer.packetDropVisualizer icon "\"msg/packet_s\""
par GradysNetwork.visualizer.canvasVisualizer.packetDropVisualizer iconTintAmount 1
par GradysNetwork.visualizer.canvasVisualizer.packetDropVisualizer iconTintColor "\"dark\""
par GradysNetwork.visualizer.canvasVisualizer.packetDropVisualizer labelFormat "\"%n\""
attr mutable ""
par GradysNetwork.visualizer.canvasVisualizer.packetDropVisualizer labelFont "\"<default>\""
par GradysNetwork.visualizer.canvasVisualizer.packetDropVisualizer labelColor "\"black\""
par GradysNetwork.visualizer.canvasVisualizer.packetDropVisualizer fadeOutMode "\"realTime\""
attr enum realTime,animationTime,simulationTime
par GradysNetwork.visualizer.canvasVisualizer.packetDropVisualizer fadeOutTime 1s
attr unit s
par GradysNetwork.visualizer.canvasVisualizer.packetDropVisualizer fadeOutAnimationSpeed 0
par GradysNetwork.visualizer.canvasVisualizer.packetDropVisualizer zIndex 10
par GradysNetwork.visualizer.canvasVisualizer.packetDropVisualizer dx 32
par GradysNetwork.visualizer.canvasVisualizer.packetDropVisualizer dy 64
par GradysNetwork.visualizer.canvasVisualizer.packetFlowVisualizer typename "\"inet.visualizer.canvas.flow.PacketFlowCanvasVisualizer\""
par GradysNetwork.visualizer.canvasVisualizer.packetFlowVisualizer visualizationTargetModule "\"^.^.^\""
par GradysNetwork.visualizer.canvasVisualizer.packetFlowVisualizer visualizationSubjectModule "\"^.^.^\""
par GradysNetwork.visualizer.canvasVisualizer.packetFlowVisualizer tags "\"\""
par GradysNetwork.visualizer.canvasVisualizer.packetFlowVisualizer displayRoutes false
par GradysNetwork.visualizer.canvasVisualizer.packetFlowVisualizer startPathSignal "\"packetFlowStarted\""
par GradysNetwork.visualizer.canvasVisualizer.packetFlowVisualizer extendPathSignal "\"packetReceivedFromLower\""
par GradysNetwork.visualizer.canvasVisualizer.packetFlowVisualizer endPathSignal "\"packetFlowEnded\""
par GradysNetwork.visualizer.canvasVisualizer.packetFlowVisualizer nodeFilter "\"*\""
attr mutable ""
par GradysNetwork.visualizer.canvasVisualizer.packetFlowVisualizer packetFilter "(omnetpp::cValueHolder)holder: \"*\""
attr mutable ""
par GradysNetwork.visualizer.canvasVisualizer.packetFlowVisualizer lineColor "\"dark\""
attr enum light,dark
par GradysNetwork.visualizer.canvasVisualizer.packetFlowVisualizer lineStyle "\"dashed\""
par GradysNetwork.visualizer.canvasVisualizer.packetFlowVisualizer lineWidth 3
par GradysNetwork.visualizer.canvasVisualizer.packetFlowVisualizer lineSmooth false
par GradysNetwork.visualizer.canvasVisualizer.packetFlowVisualizer lineShift 16
par GradysNetwork.visualizer.canvasVisualizer.packetFlowVisualizer lineShiftMode "\"normal\""
par GradysNetwork.visualizer.canvasVisualizer.packetFlowVisualizer lineContactSpacing 3
par GradysNetwork.visualizer.canvasVisualizer.packetFlowVisualizer lineContactMode "\"rectangular\""
attr enum circular,rectangular
par GradysNetwork.visualizer.canvasVisualizer.packetFlowVisualizer labelFormat "\"%L %p pk (%l)\""
par GradysNetwork.visualizer.canvasVisualizer.packetFlowVisualizer labelFont "\"<default>, 8px\""
par GradysNetwork.visualizer.canvasVisualizer.packetFlowVisualizer labelColor "\"\""
par GradysNetwork.visualizer.canvasVisualizer.packetFlowVisualizer fadeOutMode "\"realTime\""
attr enum realTime,animationTime,simulationTime
par GradysNetwork.visualizer.canvasVisualizer.packetFlowVisualizer fadeOutTime 0s
attr unit s
par GradysNetwork.visualizer.canvasVisualizer.packetFlowVisualizer fadeOutAnimationSpeed 0
par GradysNetwork.visualizer.canvasVisualizer.packetFlowVisualizer zIndex 4
par GradysNetwork.visualizer.canvasVisualizer.queueVisualizer typename "\"inet.visualizer.canvas.common.QueueCanvasVisualizer\""
par GradysNetwork.visualizer.canvasVisualizer.queueVisualizer visualizationTargetModule "\"^.^.^\""
par GradysNetwork.visualizer.canvasVisualizer.queueVisualizer visualizationSubjectModule "\"^.^.^\""
par GradysNetwork.visualizer.canvasVisualizer.queueVisualizer tags "\"\""
par GradysNetwork.visualizer.canvasVisualizer.queueVisualizer networkNodeVisualizerModule "\"^.networkNodeVisualizer\""
par GradysNetwork.visualizer.canvasVisualizer.queueVisualizer displayQueues false
par GradysNetwork.visualizer.canvasVisualizer.queueVisualizer queueFilter "\"**\""
par GradysNetwork.visualizer.canvasVisualizer.queueVisualizer color "\"blue\""
par GradysNetwork.visualizer.canvasVisualizer.queueVisualizer width 8
par GradysNetwork.visualizer.canvasVisualizer.queueVisualizer height 24
par GradysNetwork.visualizer.canvasVisualizer.queueVisualizer spacing 2
par GradysNetwork.visualizer.canvasVisualizer.queueVisualizer placementHint "\"right\""
par GradysNetwork.visualizer.canvasVisualizer.queueVisualizer placementPriority 0
par GradysNetwork.visualizer.canvasVisualizer.queueVisualizer zIndex 10
par GradysNetwork.visualizer.canvasVisualizer.gateScheduleVisualizer typename "\"inet.visualizer.canvas.common.GateScheduleCanvasVisualizer\""
par GradysNetwork.visualizer.canvasVisualizer.gateScheduleVisualizer visualizationTargetModule "\"^.^.^\""
par GradysNetwork.visualizer.canvasVisualizer.gateScheduleVisualizer visualizationSubjectModule "\"^.^.^\""
par GradysNetwork.visualizer.canvasVisualizer.gateScheduleVisualizer tags "\"\""
par GradysNetwork.visualizer.canvasVisualizer.gateScheduleVisualizer networkNodeVisualizerModule "\"^.networkNodeVisualizer\""
par GradysNetwork.visualizer.canvasVisualizer.gateScheduleVisualizer displayGateSchedules false
par GradysNetwork.visualizer.canvasVisualizer.gateScheduleVisualizer labelFormat "\"%i %D\""
par GradysNetwork.visualizer.canvasVisualizer.gateScheduleVisualizer gateFilter "\"**\""
par GradysNetwork.visualizer.canvasVisualizer.gateScheduleVisualizer width 100
par GradysNetwork.visualizer.canvasVisualizer.gateScheduleVisualizer height 8
par GradysNetwork.visualizer.canvasVisualizer.gateScheduleVisualizer spacing 2
par GradysNetwork.visualizer.canvasVisualizer.gateScheduleVisualizer placementHint "\"right\""
par GradysNetwork.visualizer.canvasVisualizer.gateScheduleVisualizer placementPriority 0
par GradysNetwork.visualizer.canvasVisualizer.gateScheduleVisualizer displayDuration 0s
attr mutable ""
attr unit s
par GradysNetwork.visualizer.canvasVisualizer.gateScheduleVisualizer currentTimePosition 50
par GradysNetwork.visualizer.canvasVisualizer.gateScheduleVisualizer zIndex 10
par GradysNetwork.visualizer.canvasVisualizer.radioVisualizer typename "\"inet.visualizer.canvas.physicallayer.RadioCanvasVisualizer\""
par GradysNetwork.visualizer.canvasVisualizer.radioVisualizer visualizationTargetModule "\"^.^.^\""
par GradysNetwork.visualizer.canvasVisualizer.radioVisualizer visualizationSubjectModule "\"^.^.^\""
par GradysNetwork.visualizer.canvasVisualizer.radioVisualizer tags "\"\""
par GradysNetwork.visualizer.canvasVisualizer.radioVisualizer networkNodeVisualizerModule "\"^.networkNodeVisualizer\""
par GradysNetwork.visualizer.canvasVisualizer.radioVisualizer displayRadios false
par GradysNetwork.visualizer.canvasVisualizer.radioVisualizer displayRadioMode true
par GradysNetwork.visualizer.canvasVisualizer.radioVisualizer displayReceptionState true
par GradysNetwork.visualizer.canvasVisualizer.radioVisualizer displayTransmissionState true
par GradysNetwork.visualizer.canvasVisualizer.radioVisualizer displayAntennaLobes false
par GradysNetwork.visualizer.canvasVisualizer.radioVisualizer radioFilter "\"**\""
attr mutable ""
par GradysNetwork.visualizer.canvasVisualizer.radioVisualizer radioModeImages "\"block/process_vs block/timer_vs block/wrx_vs block/wtx_vs block/wrxtx_vs block/cogwheel_vs\""
par GradysNetwork.visualizer.canvasVisualizer.radioVisualizer receptionStateImages "\"- - misc/receiving misc/receiving\""
par GradysNetwork.visualizer.canvasVisualizer.radioVisualizer transmissionStateImages "\"- - misc/transmitting\""
par GradysNetwork.visualizer.canvasVisualizer.radioVisualizer width 16
par GradysNetwork.visualizer.canvasVisualizer.radioVisualizer height 16
par GradysNetwork.visualizer.canvasVisualizer.radioVisualizer placementHint "\"bottomRight\""
par GradysNetwork.visualizer.canvasVisualizer.radioVisualizer placementPriority 0
par GradysNetwork.visualizer.canvasVisualizer.radioVisualizer antennaLobeNormalize false
par GradysNetwork.visualizer.canvasVisualizer.radioVisualizer antennaLobeRelativeLabels false
par GradysNetwork.visualizer.canvasVisualizer.radioVisualizer antennaLobePlaneGlobal true
par GradysNetwork.visualizer.canvasVisualizer.radioVisualizer antennaLobePlane "\"view\""
attr enum view,xy,xz,yz
par GradysNetwork.visualizer.canvasVisualizer.radioVisualizer antennaLobeMode "\"logarithmic\""
attr enum logarithmic,linear
par GradysNetwork.visualizer.canvasVisualizer.radioVisualizer antennaLobeLogarithmicBase 10
par GradysNetwork.visualizer.canvasVisualizer.radioVisualizer antennaLobeLogarithmicScale 100
par GradysNetwork.visualizer.canvasVisualizer.radioVisualizer antennaLobeRadius 100
par GradysNetwork.visualizer.canvasVisualizer.radioVisualizer antennaLobeStep 10deg
attr unit deg
par GradysNetwork.visualizer.canvasVisualizer.radioVisualizer antennaLobeOpacity 0.25
par GradysNetwork.visualizer.canvasVisualizer.radioVisualizer antennaLobeLineSmooth true
par GradysNetwork.visualizer.canvasVisualizer.radioVisualizer antennaLobeLineColor "\"black\""
par GradysNetwork.visualizer.canvasVisualizer.radioVisualizer antennaLobeLineStyle "\"solid\""
par GradysNetwork.visualizer.canvasVisualizer.radioVisualizer antennaLobeLineWidth 1
par GradysNetwork.visualizer.canvasVisualizer.radioVisualizer antennaLobeFillColor "\"white\""
par GradysNetwork.visualizer.canvasVisualizer.radioVisualizer zIndex 10
par GradysNetwork.visualizer.canvasVisualizer.physicalLinkVisualizer typename "\"inet.visualizer.canvas.physicallayer.PhysicalLinkCanvasVisualizer\""
par GradysNetwork.visualizer.canvasVisualizer.physicalLinkVisualizer visualizationTargetModule "\"^.^.^\""
par GradysNetwork.visualizer.canvasVisualizer.physicalLinkVisualizer visualizationSubjectModule "\"^.^.^\""
par GradysNetwork.visualizer.canvasVisualizer.physicalLinkVisualizer tags "\"\""
par GradysNetwork.visualizer.canvasVisualizer.physicalLinkVisualizer displayLinks false
par GradysNetwork.visualizer.canvasVisualizer.physicalLinkVisualizer activityLevel "\"service\""
attr enum service,peer,protocol
par GradysNetwork.visualizer.canvasVisualizer.physicalLinkVisualizer nodeFilter "\"*\""
attr mutable ""
par GradysNetwork.visualizer.canvasVisualizer.physicalLinkVisualizer interfaceFilter "\"*\""
attr mutable ""
par GradysNetwork.visualizer.canvasVisualizer.physicalLinkVisualizer packetFilter "(omnetpp::cValueHolder)holder: \"*\""
attr mutable ""
par GradysNetwork.visualizer.canvasVisualizer.physicalLinkVisualizer lineColor "\"olive\""
par GradysNetwork.visualizer.canvasVisualizer.physicalLinkVisualizer lineStyle "\"dotted\""
par GradysNetwork.visualizer.canvasVisualizer.physicalLinkVisualizer lineWidth 3
par GradysNetwork.visualizer.canvasVisualizer.physicalLinkVisualizer lineShift 0
par GradysNetwork.visualizer.canvasVisualizer.physicalLinkVisualizer lineShiftMode "\"normal\""
par GradysNetwork.visualizer.canvasVisualizer.physicalLinkVisualizer lineContactSpacing 3
par GradysNetwork.visualizer.canvasVisualizer.physicalLinkVisualizer lineContactMode "\"rectangular\""
attr enum circular,rectangular
par GradysNetwork.visualizer.canvasVisualizer.physicalLinkVisualizer labelFormat "\"%n\""
par GradysNetwork.visualizer.canvasVisualizer.physicalLinkVisualizer labelFont "\"<default>, 8px\""
par GradysNetwork.visualizer.canvasVisualizer.physicalLinkVisualizer labelColor "\"olive\""
par GradysNetwork.visualizer.canvasVisualizer.physicalLinkVisualizer fadeOutMode "\"realTime\""
attr enum realTime,animationTime,simulationTime
par GradysNetwork.visualizer.canvasVisualizer.physicalLinkVisualizer fadeOutTime 1s
attr unit s
par GradysNetwork.visualizer.canvasVisualizer.physicalLinkVisualizer fadeOutAnimationSpeed 0
par GradysNetwork.visualizer.canvasVisualizer.physicalLinkVisualizer holdAnimationTime 0s
attr unit s
par GradysNetwork.visualizer.canvasVisualizer.physicalLinkVisualizer zIndex 1
par GradysNetwork.visualizer.canvasVisualizer.interfaceTableVisualizer typename "\"inet.visualizer.canvas.linklayer.InterfaceTableCanvasVisualizer\""
par GradysNetwork.visualizer.canvasVisualizer.interfaceTableVisualizer visualizationTargetModule "\"^.^.^\""
par GradysNetwork.visualizer.canvasVisualizer.interfaceTableVisualizer visualizationSubjectModule "\"^.^.^\""
par GradysNetwork.visualizer.canvasVisualizer.interfaceTableVisualizer tags "\"\""
par GradysNetwork.visualizer.canvasVisualizer.interfaceTableVisualizer networkNodeVisualizerModule "\"^.networkNodeVisualizer\""
par GradysNetwork.visualizer.canvasVisualizer.interfaceTableVisualizer displayInterfaceTables false
par GradysNetwork.visualizer.canvasVisualizer.interfaceTableVisualizer displayWiredInterfacesAtConnections true
par GradysNetwork.visualizer.canvasVisualizer.interfaceTableVisualizer displayBackground false
par GradysNetwork.visualizer.canvasVisualizer.interfaceTableVisualizer nodeFilter "\"*\""
attr mutable ""
par GradysNetwork.visualizer.canvasVisualizer.interfaceTableVisualizer interfaceFilter "\"not(lo*)\""
attr mutable ""
par GradysNetwork.visualizer.canvasVisualizer.interfaceTableVisualizer format "\"%N %\\\\%a%/%l\""
attr mutable ""
par GradysNetwork.visualizer.canvasVisualizer.interfaceTableVisualizer placementHint "\"top\""
par GradysNetwork.visualizer.canvasVisualizer.interfaceTableVisualizer placementPriority 0
par GradysNetwork.visualizer.canvasVisualizer.interfaceTableVisualizer font "\"<default>\""
par GradysNetwork.visualizer.canvasVisualizer.interfaceTableVisualizer textColor "\"#005030\""
par GradysNetwork.visualizer.canvasVisualizer.interfaceTableVisualizer backgroundColor "\"white\""
par GradysNetwork.visualizer.canvasVisualizer.interfaceTableVisualizer opacity 1
par GradysNetwork.visualizer.canvasVisualizer.interfaceTableVisualizer zIndex 10
par GradysNetwork.visualizer.canvasVisualizer.dataLinkVisualizer typename "\"inet.visualizer.canvas.linklayer.DataLinkCanvasVisualizer\""
par GradysNetwork.visualizer.canvasVisualizer.dataLinkVisualizer visualizationTargetModule "\"^.^.^\""
par GradysNetwork.visualizer.canvasVisualizer.dataLinkVisualizer visualizationSubjectModule "\"^.^.^\""
par GradysNetwork.visualizer.canvasVisualizer.dataLinkVisualizer tags "\"\""
par GradysNetwork.visualizer.canvasVisualizer.dataLinkVisualizer displayLinks false
par GradysNetwork.visualizer.canvasVisualizer.dataLinkVisualizer activityLevel "\"service\""
attr enum service,peer,protocol
par GradysNetwork.visualizer.canvasVisualizer.dataLinkVisualizer nodeFilter "\"*\""
attr mutable ""
par GradysNetwork.visualizer.canvasVisualizer.dataLinkVisualizer interfaceFilter "\"*\""
attr mutable ""
par GradysNetwork.visualizer.canvasVisualizer.dataLinkVisualizer packetFilter "(omnetpp::cValueHolder)holder: \"*\""
attr mutable ""
par GradysNetwork.visualizer.canvasVisualizer.dataLinkVisualizer lineColor "\"darkcyan\""
par GradysNetwork.visualizer.canvasVisualizer.dataLinkVisualizer lineStyle "\"solid\""
par GradysNetwork.visualizer.canvasVisualizer.dataLinkVisualizer lineWidth 3
par GradysNetwork.visualizer.canvasVisualizer.dataLinkVisualizer lineShift 0
par GradysNetwork.visualizer.canvasVisualizer.dataLinkVisualizer lineShiftMode "\"normal\""
par GradysNetwork.visualizer.canvasVisualizer.dataLinkVisualizer lineContactSpacing 3
par GradysNetwork.visualizer.canvasVisualizer.dataLinkVisualizer lineContactMode "\"rectangular\""
attr enum circular,rectangular
par GradysNetwork.visualizer.canvasVisualizer.dataLinkVisualizer labelFormat "\"%n\""
par GradysNetwork.visualizer.canvasVisualizer.dataLinkVisualizer labelFont "\"<default>, 8px\""
par GradysNetwork.visualizer.canvasVisualizer.dataLinkVisualizer labelColor "\"darkcyan\""
par GradysNetwork.visualizer.canvasVisualizer.dataLinkVisualizer fadeOutMode "\"realTime\""
attr enum realTime,animationTime,simulationTime
par GradysNetwork.visualizer.canvasVisualizer.dataLinkVisualizer fadeOutTime 1s
attr unit s
par GradysNetwork.visualizer.canvasVisualizer.dataLinkVisualizer fadeOutAnimationSpeed 0
par GradysNetwork.visualizer.canvasVisualizer.dataLinkVisualizer holdAnimationTime 0s
attr unit s
par GradysNetwork.visualizer.canvasVisualizer.dataLinkVisualizer zIndex 2
par GradysNetwork.visualizer.canvasVisualizer.linkBreakVisualizer typename "\"inet.visualizer.canvas.linklayer.LinkBreakCanvasVisualizer\""
par GradysNetwork.visualizer.canvasVisualizer.linkBreakVisualizer visualizationTargetModule "\"^.^.^\""
par GradysNetwork.visualizer.canvasVisualizer.linkBreakVisualizer visualizationSubjectModule "\"^.^.^\""
par GradysNetwork.visualizer.canvasVisualizer.linkBreakVisualizer tags "\"\""
par GradysNetwork.visualizer.canvasVisualizer.linkBreakVisualizer displayLinkBreaks false
par GradysNetwork.visualizer.canvasVisualizer.linkBreakVisualizer nodeFilter "\"*\""
attr mutable ""
par GradysNetwork.visualizer.canvasVisualizer.linkBreakVisualizer interfaceFilter "\"*\""
attr mutable ""
par GradysNetwork.visualizer.canvasVisualizer.linkBreakVisualizer packetFilter "(omnetpp::cValueHolder)holder: \"*\""
attr mutable ""
par GradysNetwork.visualizer.canvasVisualizer.linkBreakVisualizer icon "\"status/stop\""
par GradysNetwork.visualizer.canvasVisualizer.linkBreakVisualizer iconTintAmount 0
par GradysNetwork.visualizer.canvasVisualizer.linkBreakVisualizer iconTintColor "\"\""
par GradysNetwork.visualizer.canvasVisualizer.linkBreakVisualizer fadeOutMode "\"realTime\""
attr enum realTime,animationTime,simulationTime
par GradysNetwork.visualizer.canvasVisualizer.linkBreakVisualizer fadeOutTime 1s
attr unit s
par GradysNetwork.visualizer.canvasVisualizer.linkBreakVisualizer fadeOutAnimationSpeed 0
par GradysNetwork.visualizer.canvasVisualizer.linkBreakVisualizer zIndex 2
par GradysNetwork.visualizer.canvasVisualizer.ieee80211Visualizer typename "\"inet.visualizer.canvas.linklayer.Ieee80211CanvasVisualizer\""
par GradysNetwork.visualizer.canvasVisualizer.ieee80211Visualizer visualizationTargetModule "\"^.^.^\""
par GradysNetwork.visualizer.canvasVisualizer.ieee80211Visualizer visualizationSubjectModule "\"^.^.^\""
par GradysNetwork.visualizer.canvasVisualizer.ieee80211Visualizer tags "\"\""
par GradysNetwork.visualizer.canvasVisualizer.ieee80211Visualizer networkNodeVisualizerModule "\"^.networkNodeVisualizer\""
par GradysNetwork.visualizer.canvasVisualizer.ieee80211Visualizer displayAssociations false
par GradysNetwork.visualizer.canvasVisualizer.ieee80211Visualizer nodeFilter "\"*\""
attr mutable ""
par GradysNetwork.visualizer.canvasVisualizer.ieee80211Visualizer interfaceFilter "\"*\""
attr mutable ""
par GradysNetwork.visualizer.canvasVisualizer.ieee80211Visualizer minPower -85dBm
attr unit dBm
par GradysNetwork.visualizer.canvasVisualizer.ieee80211Visualizer maxPower -50dBm
attr unit dBm
par GradysNetwork.visualizer.canvasVisualizer.ieee80211Visualizer icons "\"misc/signal_power_0 misc/signal_power_1 misc/signal_power_2 misc/signal_power_3\""
par GradysNetwork.visualizer.canvasVisualizer.ieee80211Visualizer iconColor "\"dark\""
attr enum light,dark
par GradysNetwork.visualizer.canvasVisualizer.ieee80211Visualizer labelFont "\"<default>\""
par GradysNetwork.visualizer.canvasVisualizer.ieee80211Visualizer labelColor "\"black\""
par GradysNetwork.visualizer.canvasVisualizer.ieee80211Visualizer placementHint "\"top\""
par GradysNetwork.visualizer.canvasVisualizer.ieee80211Visualizer placementPriority 0
par GradysNetwork.visualizer.canvasVisualizer.ieee80211Visualizer zIndex 2
par GradysNetwork.visualizer.canvasVisualizer.networkRouteVisualizer typename "\"inet.visualizer.canvas.networklayer.NetworkRouteCanvasVisualizer\""
par GradysNetwork.visualizer.canvasVisualizer.networkRouteVisualizer visualizationTargetModule "\"^.^.^\""
par GradysNetwork.visualizer.canvasVisualizer.networkRouteVisualizer visualizationSubjectModule "\"^.^.^\""
par GradysNetwork.visualizer.canvasVisualizer.networkRouteVisualizer tags "\"\""
par GradysNetwork.visualizer.canvasVisualizer.networkRouteVisualizer displayRoutes false
par GradysNetwork.visualizer.canvasVisualizer.networkRouteVisualizer startPathSignal "\"packetReceivedFromUpper\""
par GradysNetwork.visualizer.canvasVisualizer.networkRouteVisualizer extendPathSignal "\"packetReceivedFromLower\""
par GradysNetwork.visualizer.canvasVisualizer.networkRouteVisualizer endPathSignal "\"packetSentToUpper\""
par GradysNetwork.visualizer.canvasVisualizer.networkRouteVisualizer nodeFilter "\"*\""
attr mutable ""
par GradysNetwork.visualizer.canvasVisualizer.networkRouteVisualizer packetFilter "(omnetpp::cValueHolder)holder: \"*\""
attr mutable ""
par GradysNetwork.visualizer.canvasVisualizer.networkRouteVisualizer lineColor "\"dark\""
attr enum light,dark
par GradysNetwork.visualizer.canvasVisualizer.networkRouteVisualizer lineStyle "\"solid\""
par GradysNetwork.visualizer.canvasVisualizer.networkRouteVisualizer lineWidth 3
par GradysNetwork.visualizer.canvasVisualizer.networkRouteVisualizer lineSmooth false
par GradysNetwork.visualizer.canvasVisualizer.networkRouteVisualizer lineShift 0
par GradysNetwork.visualizer.canvasVisualizer.networkRouteVisualizer lineShiftMode "\"normal\""
par GradysNetwork.visualizer.canvasVisualizer.networkRouteVisualizer lineContactSpacing 3
par GradysNetwork.visualizer.canvasVisualizer.networkRouteVisualizer lineContactMode "\"rectangular\""
attr enum circular,rectangular
par GradysNetwork.visualizer.canvasVisualizer.networkRouteVisualizer labelFormat "\"%n\""
par GradysNetwork.visualizer.canvasVisualizer.networkRouteVisualizer labelFont "\"<default>, 8px\""
par GradysNetwork.visualizer.canvasVisualizer.networkRouteVisualizer labelColor "\"\""
par GradysNetwork.visualizer.canvasVisualizer.networkRouteVisualizer fadeOutMode "\"realTime\""
attr enum realTime,animationTime,simulationTime
par GradysNetwork.visualizer.canvasVisualizer.networkRouteVisualizer fadeOutTime 1s
attr unit s
par GradysNetwork.visualizer.canvasVisualizer.networkRouteVisualizer fadeOutAnimationSpeed 0
par GradysNetwork.visualizer.canvasVisualizer.networkRouteVisualizer zIndex 3
par GradysNetwork.visualizer.canvasVisualizer.routingTableVisualizer typename "\"inet.visualizer.canvas.networklayer.RoutingTableCanvasVisualizer\""
par GradysNetwork.visualizer.canvasVisualizer.routingTableVisualizer visualizationTargetModule "\"^.^.^\""
par GradysNetwork.visualizer.canvasVisualizer.routingTableVisualizer visualizationSubjectModule "\"^.^.^\""
par GradysNetwork.visualizer.canvasVisualizer.routingTableVisualizer tags "\"\""
par GradysNetwork.visualizer.canvasVisualizer.routingTableVisualizer displayRoutingTables false
par GradysNetwork.visualizer.canvasVisualizer.routingTableVisualizer displayRoutesIndividually true
par GradysNetwork.visualizer.canvasVisualizer.routingTableVisualizer displayLabels true
par GradysNetwork.visualizer.canvasVisualizer.routingTableVisualizer destinationFilter "\"*\""
attr mutable ""
par GradysNetwork.visualizer.canvasVisualizer.routingTableVisualizer nodeFilter "\"*\""
attr mutable ""
par GradysNetwork.visualizer.canvasVisualizer.routingTableVisualizer lineColor "\"black\""
par GradysNetwork.visualizer.canvasVisualizer.routingTableVisualizer lineStyle "\"solid\""
par GradysNetwork.visualizer.canvasVisualizer.routingTableVisualizer lineWidth 2
par GradysNetwork.visualizer.canvasVisualizer.routingTableVisualizer lineShift 16
par GradysNetwork.visualizer.canvasVisualizer.routingTableVisualizer lineShiftMode "\"normal\""
par GradysNetwork.visualizer.canvasVisualizer.routingTableVisualizer lineContactSpacing 3
par GradysNetwork.visualizer.canvasVisualizer.routingTableVisualizer lineContactMode "\"rectangular\""
attr enum circular,rectangular
par GradysNetwork.visualizer.canvasVisualizer.routingTableVisualizer labelFormat "\"%d/%m -> %g (%n)\""
attr mutable ""
par GradysNetwork.visualizer.canvasVisualizer.routingTableVisualizer labelFont "\"<default>, 8px\""
par GradysNetwork.visualizer.canvasVisualizer.routingTableVisualizer labelColor "\"black\""
par GradysNetwork.visualizer.canvasVisualizer.routingTableVisualizer zIndex 0
par GradysNetwork.visualizer.canvasVisualizer.transportRouteVisualizer typename "\"inet.visualizer.canvas.transportlayer.TransportRouteCanvasVisualizer\""
par GradysNetwork.visualizer.canvasVisualizer.transportRouteVisualizer visualizationTargetModule "\"^.^.^\""
par GradysNetwork.visualizer.canvasVisualizer.transportRouteVisualizer visualizationSubjectModule "\"^.^.^\""
par GradysNetwork.visualizer.canvasVisualizer.transportRouteVisualizer tags "\"\""
par GradysNetwork.visualizer.canvasVisualizer.transportRouteVisualizer displayRoutes false
par GradysNetwork.visualizer.canvasVisualizer.transportRouteVisualizer startPathSignal "\"packetReceivedFromUpper\""
par GradysNetwork.visualizer.canvasVisualizer.transportRouteVisualizer extendPathSignal "\"packetReceivedFromLower\""
par GradysNetwork.visualizer.canvasVisualizer.transportRouteVisualizer endPathSignal "\"packetSentToUpper\""
par GradysNetwork.visualizer.canvasVisualizer.transportRouteVisualizer nodeFilter "\"*\""
attr mutable ""
par GradysNetwork.visualizer.canvasVisualizer.transportRouteVisualizer packetFilter "(omnetpp::cValueHolder)holder: \"*\""
attr mutable ""
par GradysNetwork.visualizer.canvasVisualizer.transportRouteVisualizer lineColor "\"dark\""
attr enum light,dark
par GradysNetwork.visualizer.canvasVisualizer.transportRouteVisualizer lineStyle "\"solid\""
par GradysNetwork.visualizer.canvasVisualizer.transportRouteVisualizer lineWidth 3
par GradysNetwork.visualizer.canvasVisualizer.transportRouteVisualizer lineSmooth false
par GradysNetwork.visualizer.canvasVisualizer.transportRouteVisualizer lineShift 16
par GradysNetwork.visualizer.canvasVisualizer.transportRouteVisualizer lineShiftMode "\"normal\""
par GradysNetwork.visualizer.canvasVisualizer.transportRouteVisualizer lineContactSpacing 3
par GradysNetwork.visualizer.canvasVisualizer.transportRouteVisualizer lineContactMode "\"rectangular\""
attr enum circular,rectangular
par GradysNetwork.visualizer.canvasVisualizer.transportRouteVisualizer labelFormat "\"%n\""
par GradysNetwork.visualizer.canvasVisualizer.transportRouteVisualizer labelFont "\"<default>, 8px\""
par GradysNetwork.visualizer.canvasVisualizer.transportRouteVisualizer labelColor "\"\""
par GradysNetwork.visualizer.canvasVisualizer.transportRouteVisualizer fadeOutMode "\"realTime\""
attr enum realTime,animationTime,simulationTime
par GradysNetwork.visualizer.canvasVisualizer.transportRouteVisualizer fadeOutTime 1s
attr unit s
par GradysNetwork.visualizer.canvasVisualizer.transportRouteVisualizer fadeOutAnimationSpeed 0
par GradysNetwork.visualizer.canvasVisualizer.transportRouteVisualizer zIndex 4
par GradysNetwork.visualizer.canvasVisualizer.transportConnectionVisualizer typename "\"inet.visualizer.canvas.transportlayer.TransportConnectionCanvasVisualizer\""
par GradysNetwork.visualizer.canvasVisualizer.transportConnectionVisualizer visualizationTargetModule "\"^.^.^\""
par GradysNetwork.visualizer.canvasVisualizer.transportConnectionVisualizer visualizationSubjectModule "\"^.^.^\""
par GradysNetwork.visualizer.canvasVisualizer.transportConnectionVisualizer tags "\"\""
par GradysNetwork.visualizer.canvasVisualizer.transportConnectionVisualizer networkNodeVisualizerModule "\"^.networkNodeVisualizer\""
par GradysNetwork.visualizer.canvasVisualizer.transportConnectionVisualizer displayTransportConnections false
par GradysNetwork.visualizer.canvasVisualizer.transportConnectionVisualizer sourceNodeFilter "\"*\""
attr mutable ""
par GradysNetwork.visualizer.canvasVisualizer.transportConnectionVisualizer sourcePortFilter "\"*\""
attr mutable ""
par GradysNetwork.visualizer.canvasVisualizer.transportConnectionVisualizer destinationNodeFilter "\"*\""
attr mutable ""
par GradysNetwork.visualizer.canvasVisualizer.transportConnectionVisualizer destinationPortFilter "\"*\""
attr mutable ""
par GradysNetwork.visualizer.canvasVisualizer.transportConnectionVisualizer icon "\"misc/marker_s\""
par GradysNetwork.visualizer.canvasVisualizer.transportConnectionVisualizer iconColor "\"dark\""
attr enum light,dark
par GradysNetwork.visualizer.canvasVisualizer.transportConnectionVisualizer labelFont "\"<default>\""
par GradysNetwork.visualizer.canvasVisualizer.transportConnectionVisualizer labelColor "\"black\""
par GradysNetwork.visualizer.canvasVisualizer.transportConnectionVisualizer placementHint "\"top\""
par GradysNetwork.visualizer.canvasVisualizer.transportConnectionVisualizer placementPriority 0
par GradysNetwork.visualizer.canvasVisualizer.transportConnectionVisualizer zIndex 4
par GradysNetwork.visualizer.canvasVisualizer.failureProtectionConfigurationVisualizer typename "\"inet.visualizer.canvas.configurator.FailureProtectionConfigurationCanvasVisualizer\""
par GradysNetwork.visualizer.canvasVisualizer.failureProtectionConfigurationVisualizer visualizationTargetModule "\"^.^.^\""
par GradysNetwork.visualizer.canvasVisualizer.failureProtectionConfigurationVisualizer visualizationSubjectModule "\"^.^.^\""
par GradysNetwork.visualizer.canvasVisualizer.failureProtectionConfigurationVisualizer tags "\"\""
par GradysNetwork.visualizer.canvasVisualizer.failureProtectionConfigurationVisualizer displayTrees false
par GradysNetwork.visualizer.canvasVisualizer.failureProtectionConfigurationVisualizer lineColor "\"dark\""
attr enum light,dark
par GradysNetwork.visualizer.canvasVisualizer.failureProtectionConfigurationVisualizer lineStyle "\"solid\""
par GradysNetwork.visualizer.canvasVisualizer.failureProtectionConfigurationVisualizer lineWidth 3
par GradysNetwork.visualizer.canvasVisualizer.failureProtectionConfigurationVisualizer lineSmooth false
par GradysNetwork.visualizer.canvasVisualizer.failureProtectionConfigurationVisualizer lineShift 16
par GradysNetwork.visualizer.canvasVisualizer.failureProtectionConfigurationVisualizer lineShiftMode "\"normal\""
par GradysNetwork.visualizer.canvasVisualizer.failureProtectionConfigurationVisualizer lineContactSpacing 3
par GradysNetwork.visualizer.canvasVisualizer.failureProtectionConfigurationVisualizer lineContactMode "\"rectangular\""
attr enum circular,rectangular
par GradysNetwork.visualizer.canvasVisualizer.failureProtectionConfigurationVisualizer failureProtectionConfiguratorModule "\"failureProtectionConfigurator\""
par GradysNetwork.visualizer.canvasVisualizer.failureProtectionConfigurationVisualizer streamFilter "\"*\""
par GradysNetwork.visualizer.canvasVisualizer.failureProtectionConfigurationVisualizer zIndex 3
par GradysNetwork.visualizer.canvasVisualizer.streamRedundancyConfigurationVisualizer typename "\"inet.visualizer.canvas.configurator.StreamRedundancyConfigurationCanvasVisualizer\""
par GradysNetwork.visualizer.canvasVisualizer.streamRedundancyConfigurationVisualizer visualizationTargetModule "\"^.^.^\""
par GradysNetwork.visualizer.canvasVisualizer.streamRedundancyConfigurationVisualizer visualizationSubjectModule "\"^.^.^\""
par GradysNetwork.visualizer.canvasVisualizer.streamRedundancyConfigurationVisualizer tags "\"\""
par GradysNetwork.visualizer.canvasVisualizer.streamRedundancyConfigurationVisualizer displayTrees false
par GradysNetwork.visualizer.canvasVisualizer.streamRedundancyConfigurationVisualizer lineColor "\"dark\""
attr enum light,dark
par GradysNetwork.visualizer.canvasVisualizer.streamRedundancyConfigurationVisualizer lineStyle "\"solid\""
par GradysNetwork.visualizer.canvasVisualizer.streamRedundancyConfigurationVisualizer lineWidth 3
par GradysNetwork.visualizer.canvasVisualizer.streamRedundancyConfigurationVisualizer lineSmooth false
par GradysNetwork.visualizer.canvasVisualizer.streamRedundancyConfigurationVisualizer lineShift 16
par GradysNetwork.visualizer.canvasVisualizer.streamRedundancyConfigurationVisualizer lineShiftMode "\"normal\""
par GradysNetwork.visualizer.canvasVisualizer.streamRedundancyConfigurationVisualizer lineContactSpacing 3
par GradysNetwork.visualizer.canvasVisualizer.streamRedundancyConfigurationVisualizer lineContactMode "\"rectangular\""
attr enum circular,rectangular
par GradysNetwork.visualizer.canvasVisualizer.streamRedundancyConfigurationVisualizer streamRedundancyConfiguratorModule "\"streamRedundancyConfigurator\""
par GradysNetwork.visualizer.canvasVisualizer.streamRedundancyConfigurationVisualizer streamFilter "\"*\""
par GradysNetwork.visualizer.canvasVisualizer.streamRedundancyConfigurationVisualizer zIndex 3
par GradysNetwork.visualizer.canvasVisualizer typename "\"inet.visualizer.canvas.integrated.IntegratedCanvasVisualizer\""
par GradysNetwork.visualizer.osgVisualizer.sceneVisualizer typename "\"inet.visualizer.osg.scene.SceneOsgEarthVisualizer\""
par GradysNetwork.visualizer.osgVisualizer.sceneVisualizer visualizationTargetModule "\"^.^.^\""
par GradysNetwork.visualizer.osgVisualizer.sceneVisualizer visualizationSubjectModule "\"^.^.^\""
par GradysNetwork.visualizer.osgVisualizer.sceneVisualizer tags "\"\""
par GradysNetwork.visualizer.osgVisualizer.sceneVisualizer physicalEnvironmentModule "\"physicalEnvironment\""
par GradysNetwork.visualizer.osgVisualizer.sceneVisualizer networkNodeVisualizerModule "\"^.networkNodeVisualizer\""
par GradysNetwork.visualizer.osgVisualizer.sceneVisualizer axisLength "nan m"
attr mutable ""
attr unit m
par GradysNetwork.visualizer.osgVisualizer.sceneVisualizer animationSpeed 0
par GradysNetwork.visualizer.osgVisualizer.sceneVisualizer sceneMinX -1000m
attr unit m
par GradysNetwork.visualizer.osgVisualizer.sceneVisualizer sceneMinY -1000m
attr unit m
par GradysNetwork.visualizer.osgVisualizer.sceneVisualizer sceneMinZ -1000m
attr unit m
par GradysNetwork.visualizer.osgVisualizer.sceneVisualizer sceneMaxX 1000m
attr unit m
par GradysNetwork.visualizer.osgVisualizer.sceneVisualizer sceneMaxY 1000m
attr unit m
par GradysNetwork.visualizer.osgVisualizer.sceneVisualizer sceneMaxZ 1000m
attr unit m
par GradysNetwork.visualizer.osgVisualizer.sceneVisualizer cameraManipulator "\"auto\""
attr enum auto,trackball,overview,terrain,earth
par GradysNetwork.visualizer.osgVisualizer.sceneVisualizer cameraDistanceFactor 5
par GradysNetwork.visualizer.osgVisualizer.sceneVisualizer zNear 1m
attr unit m
par GradysNetwork.visualizer.osgVisualizer.sceneVisualizer zFar 100000m
attr unit m
par GradysNetwork.visualizer.osgVisualizer.sceneVisualizer fieldOfView 30deg
attr unit deg
par GradysNetwork.visualizer.osgVisualizer.sceneVisualizer clearColor "\"\""
par GradysNetwork.visualizer.osgVisualizer.sceneVisualizer displayScene true
par GradysNetwork.visualizer.osgVisualizer.sceneVisualizer sceneColor "\"#A0E0A0\""
par GradysNetwork.visualizer.osgVisualizer.sceneVisualizer sceneOpacity 1
par GradysNetwork.visualizer.osgVisualizer.sceneVisualizer sceneImage "\"\""
par GradysNetwork.visualizer.osgVisualizer.sceneVisualizer sceneImageSize 100000m
attr unit m
par GradysNetwork.visualizer.osgVisualizer.sceneVisualizer sceneShading true
par GradysNetwork.visualizer.osgVisualizer.sceneVisualizer coordinateSystemModule "\"coordinateSystem\""
par GradysNetwork.visualizer.osgVisualizer.sceneVisualizer mapFile "\"map.earth\""
par GradysNetwork.visualizer.osgVisualizer.physicalEnvironmentVisualizer typename "\"inet.visualizer.osg.environment.PhysicalEnvironmentOsgVisualizer\""
par GradysNetwork.visualizer.osgVisualizer.physicalEnvironmentVisualizer visualizationTargetModule "\"^.^.^\""
par GradysNetwork.visualizer.osgVisualizer.physicalEnvironmentVisualizer visualizationSubjectModule "\"^.^.^\""
par GradysNetwork.visualizer.osgVisualizer.physicalEnvironmentVisualizer tags "\"\""
par GradysNetwork.visualizer.osgVisualizer.physicalEnvironmentVisualizer physicalEnvironmentModule "\"physicalEnvironment\""
par GradysNetwork.visualizer.osgVisualizer.physicalEnvironmentVisualizer displayObjects true
par GradysNetwork.visualizer.osgVisualizer.physicalEnvironmentVisualizer enableObjectOpacity true
par GradysNetwork.visualizer.osgVisualizer.networkNodeVisualizer typename "\"inet.visualizer.osg.scene.NetworkNodeOsgVisualizer\""
par GradysNetwork.visualizer.osgVisualizer.networkNodeVisualizer visualizationTargetModule "\"^.^.^\""
par GradysNetwork.visualizer.osgVisualizer.networkNodeVisualizer visualizationSubjectModule "\"^.^.^\""
par GradysNetwork.visualizer.osgVisualizer.networkNodeVisualizer tags "\"\""
par GradysNetwork.visualizer.osgVisualizer.networkNodeVisualizer nodeFilter "\"*\""
attr mutable ""
par GradysNetwork.visualizer.osgVisualizer.networkNodeVisualizer annotationSpacing 4
par GradysNetwork.visualizer.osgVisualizer.networkNodeVisualizer placementPenalty 10
par GradysNetwork.visualizer.osgVisualizer.networkNodeVisualizer displayModuleName true
par GradysNetwork.visualizer.osgVisualizer.networkConnectionVisualizer typename "\"inet.visualizer.osg.scene.NetworkConnectionOsgVisualizer\""
par GradysNetwork.visualizer.osgVisualizer.networkConnectionVisualizer visualizationTargetModule "\"^.^.^\""
par GradysNetwork.visualizer.osgVisualizer.networkConnectionVisualizer visualizationSubjectModule "\"^.^.^\""
par GradysNetwork.visualizer.osgVisualizer.networkConnectionVisualizer tags "\"\""
par GradysNetwork.visualizer.osgVisualizer.networkConnectionVisualizer displayNetworkConnections true
par GradysNetwork.visualizer.osgVisualizer.networkConnectionVisualizer nodeFilter "\"*\""
attr mutable ""
par GradysNetwork.visualizer.osgVisualizer.networkConnectionVisualizer lineColor "\"black\""
par GradysNetwork.visualizer.osgVisualizer.networkConnectionVisualizer lineStyle "\"solid\""
par GradysNetwork.visualizer.osgVisualizer.networkConnectionVisualizer lineWidth 1
par GradysNetwork.visualizer.osgVisualizer.mobilityVisualizer typename "\"inet.visualizer.osg.mobility.MobilityOsgVisualizer\""
par GradysNetwork.visualizer.osgVisualizer.mobilityVisualizer visualizationTargetModule "\"^.^.^\""
par GradysNetwork.visualizer.osgVisualizer.mobilityVisualizer visualizationSubjectModule "\"^.^.^\""
par GradysNetwork.visualizer.osgVisualizer.mobilityVisualizer tags "\"\""
par GradysNetwork.visualizer.osgVisualizer.mobilityVisualizer networkNodeVisualizerModule "\"^.networkNodeVisualizer\""
par GradysNetwork.visualizer.osgVisualizer.mobilityVisualizer displayMobility true
par GradysNetwork.visualizer.osgVisualizer.mobilityVisualizer animationSpeed 10
par GradysNetwork.visualizer.osgVisualizer.mobilityVisualizer moduleFilter "\"**.mobility\""
attr mutable ""
par GradysNetwork.visualizer.osgVisualizer.mobilityVisualizer displayPositions true
par GradysNetwork.visualizer.osgVisualizer.mobilityVisualizer positionCircleRadius 4
par GradysNetwork.visualizer.osgVisualizer.mobilityVisualizer positionCircleLineWidth 1
par GradysNetwork.visualizer.osgVisualizer.mobilityVisualizer positionCircleLineColor "\"dark\""
attr enum light,dark
par GradysNetwork.visualizer.osgVisualizer.mobilityVisualizer positionCircleFillColor "\"dark\""
attr enum light,dark
par GradysNetwork.visualizer.osgVisualizer.mobilityVisualizer displayOrientations true
par GradysNetwork.visualizer.osgVisualizer.mobilityVisualizer orientationPieRadius 32
par GradysNetwork.visualizer.osgVisualizer.mobilityVisualizer orientationPieSize 0.2
par GradysNetwork.visualizer.osgVisualizer.mobilityVisualizer orientationPieOpacity 0.25
par GradysNetwork.visualizer.osgVisualizer.mobilityVisualizer orientationLineColor "\"black\""
par GradysNetwork.visualizer.osgVisualizer.mobilityVisualizer orientationLineStyle "\"solid\""
par GradysNetwork.visualizer.osgVisualizer.mobilityVisualizer orientationLineWidth 1
par GradysNetwork.visualizer.osgVisualizer.mobilityVisualizer orientationFillColor "\"blue\""
par GradysNetwork.visualizer.osgVisualizer.mobilityVisualizer displayVelocities true
par GradysNetwork.visualizer.osgVisualizer.mobilityVisualizer velocityArrowScale 1
par GradysNetwork.visualizer.osgVisualizer.mobilityVisualizer velocityLineColor "\"black\""
par GradysNetwork.visualizer.osgVisualizer.mobilityVisualizer velocityLineStyle "\"solid\""
par GradysNetwork.visualizer.osgVisualizer.mobilityVisualizer velocityLineWidth 1
par GradysNetwork.visualizer.osgVisualizer.mobilityVisualizer displayMovementTrails true
par GradysNetwork.visualizer.osgVisualizer.mobilityVisualizer movementTrailLineColor "\"dark\""
attr enum light,dark
par GradysNetwork.visualizer.osgVisualizer.mobilityVisualizer movementTrailLineStyle "\"solid\""
par GradysNetwork.visualizer.osgVisualizer.mobilityVisualizer movementTrailLineWidth 1
par GradysNetwork.visualizer.osgVisualizer.mobilityVisualizer trailLength 100
par GradysNetwork.visualizer.osgVisualizer.statisticVisualizer typename "\"inet.visualizer.osg.common.StatisticOsgVisualizer\""
par GradysNetwork.visualizer.osgVisualizer.statisticVisualizer visualizationTargetModule "\"^.^.^\""
par GradysNetwork.visualizer.osgVisualizer.statisticVisualizer visualizationSubjectModule "\"^.^.^\""
par GradysNetwork.visualizer.osgVisualizer.statisticVisualizer tags "\"\""
par GradysNetwork.visualizer.osgVisualizer.statisticVisualizer networkNodeVisualizerModule "\"^.networkNodeVisualizer\""
par GradysNetwork.visualizer.osgVisualizer.statisticVisualizer displayStatistics true
par GradysNetwork.visualizer.osgVisualizer.statisticVisualizer signalName "\"dataLoad\""
par GradysNetwork.visualizer.osgVisualizer.statisticVisualizer statisticName "\"dataLoad\""
par GradysNetwork.visualizer.osgVisualizer.statisticVisualizer statisticUnit "\"\""
par GradysNetwork.visualizer.osgVisualizer.statisticVisualizer statisticExpression "\"\""
par GradysNetwork.visualizer.osgVisualizer.statisticVisualizer sourceFilter "\"**\""
attr mutable ""
par GradysNetwork.visualizer.osgVisualizer.statisticVisualizer format "\"(%v)\""
attr mutable ""
par GradysNetwork.visualizer.osgVisualizer.statisticVisualizer unit "\"\""
par GradysNetwork.visualizer.osgVisualizer.statisticVisualizer font "\"Courier New, 12px, bold\""
par GradysNetwork.visualizer.osgVisualizer.statisticVisualizer textColor "\"red\""
par GradysNetwork.visualizer.osgVisualizer.statisticVisualizer backgroundColor "\"white\""
par GradysNetwork.visualizer.osgVisualizer.statisticVisualizer opacity 1
par GradysNetwork.visualizer.osgVisualizer.statisticVisualizer placementHint "\"top\""
par GradysNetwork.visualizer.osgVisualizer.statisticVisualizer placementPriority 0
par GradysNetwork.visualizer.osgVisualizer.infoVisualizer typename "\"inet.visualizer.osg.common.InfoOsgVisualizer\""
par GradysNetwork.visualizer.osgVisualizer.infoVisualizer visualizationTargetModule "\"^.^.^\""
par GradysNetwork.visualizer.osgVisualizer.infoVisualizer visualizationSubjectModule "\"^.^.^\""
par GradysNetwork.visualizer.osgVisualizer.infoVisualizer tags "\"\""
par GradysNetwork.visualizer.osgVisualizer.infoVisualizer networkNodeVisualizerModule "\"^.networkNodeVisualizer\""
par GradysNetwork.visualizer.osgVisualizer.infoVisualizer displayInfos true
par GradysNetwork.visualizer.osgVisualizer.infoVisualizer modules "\"\""
attr mutable ""
par GradysNetwork.visualizer.osgVisualizer.infoVisualizer format "\"%t\""
attr mutable ""
par GradysNetwork.visualizer.osgVisualizer.infoVisualizer font "\"<default>\""
par GradysNetwork.visualizer.osgVisualizer.infoVisualizer textColor "\"black\""
par GradysNetwork.visualizer.osgVisualizer.infoVisualizer backgroundColor "\"white\""
par GradysNetwork.visualizer.osgVisualizer.infoVisualizer opacity 1
par GradysNetwork.visualizer.osgVisualizer.infoVisualizer placementHint "\"top\""
par GradysNetwork.visualizer.osgVisualizer.infoVisualizer placementPriority 0
par GradysNetwork.visualizer.osgVisualizer.energyStorageVisualizer typename "\"inet.visualizer.osg.power.EnergyStorageOsgVisualizer\""
par GradysNetwork.visualizer.osgVisualizer.energyStorageVisualizer visualizationTargetModule "\"^.^.^\""
par GradysNetwork.visualizer.osgVisualizer.energyStorageVisualizer visualizationSubjectModule "\"^.^.^\""
par GradysNetwork.visualizer.osgVisualizer.energyStorageVisualizer tags "\"\""
par GradysNetwork.visualizer.osgVisualizer.energyStorageVisualizer networkNodeVisualizerModule "\"^.networkNodeVisualizer\""
par GradysNetwork.visualizer.osgVisualizer.energyStorageVisualizer displayEnergyStorages false
par GradysNetwork.visualizer.osgVisualizer.energyStorageVisualizer energyStorageFilter "\"**\""
par GradysNetwork.visualizer.osgVisualizer.energyStorageVisualizer color "\"green\""
par GradysNetwork.visualizer.osgVisualizer.energyStorageVisualizer width 8
par GradysNetwork.visualizer.osgVisualizer.energyStorageVisualizer height 24
par GradysNetwork.visualizer.osgVisualizer.energyStorageVisualizer spacing 2
par GradysNetwork.visualizer.osgVisualizer.energyStorageVisualizer placementHint "\"right\""
par GradysNetwork.visualizer.osgVisualizer.energyStorageVisualizer placementPriority 0
par GradysNetwork.visualizer.osgVisualizer.mediumVisualizer typename "\"inet.visualizer.osg.physicallayer.MediumOsgVisualizer\""
par GradysNetwork.visualizer.osgVisualizer.mediumVisualizer visualizationTargetModule "\"^.^.^\""
par GradysNetwork.visualizer.osgVisualizer.mediumVisualizer visualizationSubjectModule "\"^.^.^\""
par GradysNetwork.visualizer.osgVisualizer.mediumVisualizer tags "\"\""
par GradysNetwork.visualizer.osgVisualizer.mediumVisualizer mediumModule "\"radioMedium\""
par GradysNetwork.visualizer.osgVisualizer.mediumVisualizer networkNodeVisualizerModule "\"^.networkNodeVisualizer\""
par GradysNetwork.visualizer.osgVisualizer.mediumVisualizer nodeFilter "\"*\""
attr mutable ""
par GradysNetwork.visualizer.osgVisualizer.mediumVisualizer interfaceFilter "\"*\""
attr mutable ""
par GradysNetwork.visualizer.osgVisualizer.mediumVisualizer packetFilter "(omnetpp::cValueHolder)holder: \"*\""
attr mutable ""
par GradysNetwork.visualizer.osgVisualizer.mediumVisualizer displaySignals false
par GradysNetwork.visualizer.osgVisualizer.mediumVisualizer signalColor "\"dark\""
attr enum light,dark
par GradysNetwork.visualizer.osgVisualizer.mediumVisualizer signalPropagationAnimationSpeed "nan "
attr mutable ""
par GradysNetwork.visualizer.osgVisualizer.mediumVisualizer signalPropagationAnimationTime 1s
attr unit s
par GradysNetwork.visualizer.osgVisualizer.mediumVisualizer signalPropagationAdditionalTime 0s
attr unit s
par GradysNetwork.visualizer.osgVisualizer.mediumVisualizer signalTransmissionAnimationSpeed "nan "
[...]
attr source receptionStateChanged
attr title "Radio reception state, count"
scalar GradysNetwork.farm.wlan[0].radio transmissionState:count 0
attr interpolationmode sample-hold
attr recordingmode count
attr source transmissionStateChanged
attr title "Radio transmission state, count"
statistic GradysNetwork.farm.wlan[0].radio minSnir:histogram
field count 360
field mean 6192974038.2329
field stddev 22002911329.081
field min 0.9999999999891
field max 91755054109.427
field sum 2229470653763.9
field sqrsum 1.8760904427475e+23
attr recordingmode histogram
attr source minimumSnir(packetSentToUpper)
attr title "Min SNIR"
bin	-inf	0
bin	0	317
bin	2000000000	2
bin	4000000000	2
bin	6000000000	3
bin	8000000000	4
bin	10000000000	3
bin	12000000000	2
bin	14000000000	4
bin	16000000000	1
bin	18000000000	0
bin	20000000000	0
bin	22000000000	0
bin	24000000000	0
bin	26000000000	0
bin	28000000000	0
bin	30000000000	0
bin	32000000000	0
bin	34000000000	0
bin	36000000000	0
bin	38000000000	0
bin	40000000000	0
bin	42000000000	0
bin	44000000000	0
bin	46000000000	0
bin	48000000000	0
bin	50000000000	0
bin	52000000000	0
bin	54000000000	0
bin	56000000000	0
bin	58000000000	0
bin	60000000000	0
bin	62000000000	0
bin	64000000000	0
bin	66000000000	0
bin	68000000000	0
bin	70000000000	0
bin	72000000000	0
bin	74000000000	0
bin	76000000000	0
bin	78000000000	0
bin	80000000000	0
bin	82000000000	0
bin	84000000000	0
bin	86000000000	0
bin	88000000000	0
bin	90000000000	22
bin	92000000000	0
bin	94000000000	0
bin	96000000000	0
bin	98000000000	0
bin	100000000000	0
bin	102000000000	0
bin	104000000000	0
bin	106000000000	0
bin	108000000000	0
bin	110000000000	0
bin	112000000000	0
bin	114000000000	0
bin	116000000000	0
statistic GradysNetwork.farm.wlan[0].radio packetErrorRate:histogram
field count 360
field mean 0.060101398614402
field stddev 0.20832614383355
field min 0
field max 1
field sum 21.636503501185
field sqrsum 16.880905932983
attr recordingmode histogram
attr source packetErrorRate(packetSentToUpper)
attr title "Packet error rate"
bin	-inf	0
bin	0	318
bin	0.02	1
bin	0.04	2
bin	0.06	4
bin	0.08	1
bin	0.1	2
bin	0.12	0
bin	0.14	0
bin	0.16	0
bin	0.18	0
bin	0.2	0
bin	0.22	9
bin	0.24	1
bin	0.26	0
bin	0.28	0
bin	0.3	0
bin	0.32	2
bin	0.34	0
bin	0.36	0
bin	0.38	0
bin	0.4	0
bin	0.42	1
bin	0.44	0
bin	0.46	0
bin	0.48	0
bin	0.5	0
bin	0.52	2
bin	0.54	2
bin	0.56	0
bin	0.58	0
bin	0.6	0
bin	0.62	0
bin	0.64	0
bin	0.66	0
bin	0.68	0
bin	0.7	0
bin	0.72	0
bin	0.74	0
bin	0.76	0
bin	0.78	0
bin	0.8	0
bin	0.82	0
bin	0.84	1
bin	0.86	0
bin	0.88	0
bin	0.9	0
bin	0.92	0
bin	0.94	0
bin	0.96	0
bin	0.98	0
bin	1	14
bin	1.02	0
bin	1.04	0
bin	1.06	0
bin	1.08	0
bin	1.1	0
bin	1.12	0
bin	1.14	0
bin	1.16	0
bin	1.18	0
bin	1.2	0
bin	1.22	0
bin	1.24	0
bin	1.26	0
statistic GradysNetwork.farm.wlan[0].radio bitErrorRate:histogram
field count 0
field mean -nan
field stddev -nan
field min -nan
field max -nan
field sum 0
field sqrsum 0
attr recordingmode histogram
attr source bitErrorRate(packetSentToUpper)
attr title "Bit error rate"
bin	-inf	0
bin	0	0
bin	1	0
statistic GradysNetwork.farm.wlan[0].radio symbolErrorRate:histogram
field count 0
field mean -nan
field stddev -nan
field min -nan
field max -nan
field sum 0
field sqrsum 0
attr recordingmode histogram
attr source symbolErrorRate(packetSentToUpper)
attr title "Symbol error rate"
bin	-inf	0
bin	0	0
bin	1	0
par GradysNetwork.farm.wlan[0] typename "\"inet.linklayer.ieee80211.Ieee80211Interface\""
par GradysNetwork.farm.wlan[0] displayStringTextFormat "\"%a (%i)\\n%m\""
par GradysNetwork.farm.wlan[0] recordPcap false
par GradysNetwork.farm.wlan[0] numPcapRecorders 0
par GradysNetwork.farm.wlan[0] interfaceTableModule "\"GradysNetwork.farm.interfaceTable\""
par GradysNetwork.farm.wlan[0] energySourceModule "\"\""
par GradysNetwork.farm.wlan[0] opMode "\"g(mixed)\""
attr enum a,b,g(erp),g(mixed),n(mixed-2.4Ghz),p,ac
par GradysNetwork.farm.wlan[0] address "\"0A-AA-00-00-00-0E\""
attr mutable ""
par GradysNetwork.farm.wlan[0] protocol "\"\""
par GradysNetwork.farm.wlan[0] bitrate -1bps
attr unit bps
scalar GradysNetwork.farm.wlan[0] packetDropInterfaceDown:count 0
attr interpolationmode none
attr recordingmode count
attr source packetDropReasonIsInterfaceDown(packetDropped)
attr title "packet drops: interface down, count"
scalar GradysNetwork.farm.wlan[0] packetDropInterfaceDown:sum(packetBytes) 0
attr interpolationmode none
attr recordingmode sum(packetBytes)
attr source packetDropReasonIsInterfaceDown(packetDropped)
attr title "packet drops: interface down, sum(packetBytes)"
scalar GradysNetwork.farm.wlan[0] packetDropNoCarrier:count 0
attr interpolationmode none
attr recordingmode count
attr source packetDropReasonIsNoCarrier(packetDropped)
attr title "packet drops: no carrier, count"
scalar GradysNetwork.farm.wlan[0] packetDropNoCarrier:sum(packetBytes) 0
attr interpolationmode none
attr recordingmode sum(packetBytes)
attr source packetDropReasonIsNoCarrier(packetDropped)
attr title "packet drops: no carrier, sum(packetBytes)"
par GradysNetwork.farm.ipv4.transportIn.channel typename "\"ned.IdealChannel\""
par GradysNetwork.farm.ipv4.up.out[0].channel typename "\"ned.IdealChannel\""
par GradysNetwork.farm.ipv4.lp.out[2].channel typename "\"ned.IdealChannel\""
par GradysNetwork.farm.ipv4.ifIn.channel typename "\"ned.IdealChannel\""
par GradysNetwork.farm.ipv4.configurator typename "\"inet.networklayer.configurator.ipv4.Ipv4NodeConfigurator\""
par GradysNetwork.farm.ipv4.configurator interfaceTableModule "\"GradysNetwork.farm.interfaceTable\""
par GradysNetwork.farm.ipv4.configurator routingTableModule "\"GradysNetwork.farm.ipv4.routingTable\""
par GradysNetwork.farm.ipv4.configurator networkConfiguratorModule "\"configurator\""
par GradysNetwork.farm.ipv4.configurator configureRoutingTable true
par GradysNetwork.farm.ipv4.routingTable typename "\"inet.networklayer.ipv4.Ipv4RoutingTable\""
par GradysNetwork.farm.ipv4.routingTable interfaceTableModule "\"GradysNetwork.farm.interfaceTable\""
par GradysNetwork.farm.ipv4.routingTable routerId "\"auto\""
par GradysNetwork.farm.ipv4.routingTable netmaskRoutes "\"*\""
par GradysNetwork.farm.ipv4.routingTable forwarding true
par GradysNetwork.farm.ipv4.routingTable multicastForwarding false
par GradysNetwork.farm.ipv4.routingTable useAdminDist false
par GradysNetwork.farm.ipv4.routingTable routingFile "\"\""
par GradysNetwork.farm.ipv4.natTable typename "\"inet.networklayer.ipv4.Ipv4NatTable\""
par GradysNetwork.farm.ipv4.natTable networkProtocolModule "\"^.ip\""
par GradysNetwork.farm.ipv4.natTable config "<config/> at content:1"
par GradysNetwork.farm.ipv4.up typename "\"inet.common.MessageDispatcher\""
par GradysNetwork.farm.ipv4.up displayStringTextFormat "\"processed %p pk (%l)\""
par GradysNetwork.farm.ipv4.up forwardServiceRegistration true
par GradysNetwork.farm.ipv4.up forwardProtocolRegistration true
par GradysNetwork.farm.ipv4.igmp typename "\"inet.networklayer.ipv4.Igmpv2\""
par GradysNetwork.farm.ipv4.igmp interfaceTableModule "\"GradysNetwork.farm.interfaceTable\""
par GradysNetwork.farm.ipv4.igmp routingTableModule "\"GradysNetwork.farm.ipv4.routingTable\""
par GradysNetwork.farm.ipv4.igmp crcMode "\"declared\""
attr enum declared,computed
par GradysNetwork.farm.ipv4.igmp enabled true
par GradysNetwork.farm.ipv4.igmp robustnessVariable 2
par GradysNetwork.farm.ipv4.igmp queryInterval 125s
attr unit s
par GradysNetwork.farm.ipv4.igmp queryResponseInterval 10s
attr unit s
par GradysNetwork.farm.ipv4.igmp groupMembershipInterval 260s
attr unit s
par GradysNetwork.farm.ipv4.igmp otherQuerierPresentInterval 255s
attr unit s
par GradysNetwork.farm.ipv4.igmp startupQueryInterval 31.25s
attr unit s
par GradysNetwork.farm.ipv4.igmp startupQueryCount 2
par GradysNetwork.farm.ipv4.igmp lastMemberQueryInterval 1s
attr unit s
par GradysNetwork.farm.ipv4.igmp lastMemberQueryCount 2
par GradysNetwork.farm.ipv4.igmp unsolicitedReportInterval 10s
attr unit s
par GradysNetwork.farm.ipv4.icmp typename "\"inet.networklayer.ipv4.Icmp\""
par GradysNetwork.farm.ipv4.icmp interfaceTableModule "\"GradysNetwork.farm.interfaceTable\""
par GradysNetwork.farm.ipv4.icmp routingTableModule "\"GradysNetwork.farm.ipv4.routingTable\""
par GradysNetwork.farm.ipv4.icmp crcMode "\"declared\""
attr enum declared,computed
attr mutable ""
par GradysNetwork.farm.ipv4.icmp quoteLength 8B
attr mutable ""
attr unit B
par GradysNetwork.farm.ipv4.mp typename "\"inet.common.MessageDispatcher\""
par GradysNetwork.farm.ipv4.mp displayStringTextFormat "\"processed %p pk (%l)\""
par GradysNetwork.farm.ipv4.mp forwardServiceRegistration true
par GradysNetwork.farm.ipv4.mp forwardProtocolRegistration true
par GradysNetwork.farm.ipv4.ip typename "\"inet.networklayer.ipv4.Ipv4\""
par GradysNetwork.farm.ipv4.ip interfaceTableModule "\"GradysNetwork.farm.interfaceTable\""
par GradysNetwork.farm.ipv4.ip routingTableModule "\"GradysNetwork.farm.ipv4.routingTable\""
par GradysNetwork.farm.ipv4.ip arpModule "\"GradysNetwork.farm.ipv4.arp\""
par GradysNetwork.farm.ipv4.ip icmpModule "\"GradysNetwork.farm.ipv4.icmp\""
par GradysNetwork.farm.ipv4.ip crcMode "\"declared\""
attr enum declared,computed
par GradysNetwork.farm.ipv4.ip timeToLive 32
par GradysNetwork.farm.ipv4.ip multicastTimeToLive 32
par GradysNetwork.farm.ipv4.ip fragmentTimeout 60s
attr unit s
par GradysNetwork.farm.ipv4.ip limitedBroadcast false
par GradysNetwork.farm.ipv4.ip directBroadcastInterfaces "\"\""
scalar GradysNetwork.farm.ipv4.ip packetDropAddressResolutionFailed:count 0
attr interpolationmode none
attr recordingmode count
attr source packetDropReasonIsAddressResolutionFailed(packetDropped)
attr title "packet drop: address resolution failed, count"
scalar GradysNetwork.farm.ipv4.ip packetDropAddressResolutionFailed:sum(packetBytes) 0
attr interpolationmode none
attr recordingmode sum(packetBytes)
attr source packetDropReasonIsAddressResolutionFailed(packetDropped)
attr title "packet drop: address resolution failed, sum(packetBytes)"
scalar GradysNetwork.farm.ipv4.ip packetDropHopLimitReached:count 0
attr interpolationmode none
attr recordingmode count
attr source packetDropReasonIsHopLimitReached(packetDropped)
attr title "packet drop: hop limit reached, count"
scalar GradysNetwork.farm.ipv4.ip packetDropHopLimitReached:sum(packetBytes) 0
attr interpolationmode none
attr recordingmode sum(packetBytes)
attr source packetDropReasonIsHopLimitReached(packetDropped)
attr title "packet drop: hop limit reached, sum(packetBytes)"
scalar GradysNetwork.farm.ipv4.ip packetDropForwardingDisabled:count 0
attr interpolationmode none
attr recordingmode count
attr source packetDropReasonIsForwardingDisabled(packetDropped)
attr title "packet drop: forwarding disabled, count"
scalar GradysNetwork.farm.ipv4.ip packetDropForwardingDisabled:sum(packetBytes) 0
attr interpolationmode none
attr recordingmode sum(packetBytes)
attr source packetDropReasonIsForwardingDisabled(packetDropped)
attr title "packet drop: forwarding disabled, sum(packetBytes)"
scalar GradysNetwork.farm.ipv4.ip packetDropNoInterfaceFound:count 0
attr interpolationmode none
attr recordingmode count
attr source packetDropReasonIsNoInterfaceFound(packetDropped)
attr title "packet drop: no interface found, count"
scalar GradysNetwork.farm.ipv4.ip packetDropNoInterfaceFound:sum(packetBytes) 0
attr interpolationmode none
attr recordingmode sum(packetBytes)
attr source packetDropReasonIsNoInterfaceFound(packetDropped)
attr title "packet drop: no interface found, sum(packetBytes)"
scalar GradysNetwork.farm.ipv4.ip packetDropNoRouteFound:count 0
attr interpolationmode none
attr recordingmode count
attr source packetDropReasonIsNoRouteFound(packetDropped)
attr title "packet drop: no route found, count"
scalar GradysNetwork.farm.ipv4.ip packetDropNoRouteFound:sum(packetBytes) 0
attr interpolationmode none
attr recordingmode sum(packetBytes)
attr source packetDropReasonIsNoRouteFound(packetDropped)
attr title "packet drop: no route found, sum(packetBytes)"
scalar GradysNetwork.farm.ipv4.ip packetDropUndefined:count 0
attr interpolationmode none
attr recordingmode count
attr source packetDropReasonIsUndefined(packetDropped)
attr title "packet drop: undefined, count"
scalar GradysNetwork.farm.ipv4.ip packetDropUndefined:sum(packetBytes) 0
attr interpolationmode none
attr recordingmode sum(packetBytes)
attr source packetDropReasonIsUndefined(packetDropped)
attr title "packet drop: undefined, sum(packetBytes)"
par GradysNetwork.farm.ipv4.arp typename "\"inet.networklayer.arp.ipv4.Arp\""
par GradysNetwork.farm.ipv4.arp interfaceTableModule "\"GradysNetwork.farm.interfaceTable\""
par GradysNetwork.farm.ipv4.arp routingTableModule "\"GradysNetwork.farm.ipv4.routingTable\""
par GradysNetwork.farm.ipv4.arp retryTimeout 1s
attr unit s
par GradysNetwork.farm.ipv4.arp retryCount 3
par GradysNetwork.farm.ipv4.arp cacheTimeout 120s
attr unit s
par GradysNetwork.farm.ipv4.arp proxyArpInterfaces "\"\""
scalar GradysNetwork.farm.ipv4.arp arpResolutionFailed:count 0
attr recordingmode count
attr title "ARP failed resolutions, count"
scalar GradysNetwork.farm.ipv4.arp arpResolutionCompleted:count 0
attr recordingmode count
attr title "ARP completed resolutions, count"
scalar GradysNetwork.farm.ipv4.arp arpResolutionInitiated:count 0
attr recordingmode count
attr title "ARP initiated resolutions, count"
scalar GradysNetwork.farm.ipv4.arp arpReplySent:count 0
attr recordingmode count
attr source arpReplySent
attr title "ARP replies sent, count"
scalar GradysNetwork.farm.ipv4.arp arpReplySent:sum(packetBytes) 0
attr recordingmode sum(packetBytes)
attr source arpReplySent
attr title "ARP replies sent, sum(packetBytes)"
scalar GradysNetwork.farm.ipv4.arp arpRequestSent:count 0
attr recordingmode count
attr source arpRequestSent
attr title "ARP request sent, count"
scalar GradysNetwork.farm.ipv4.arp arpRequestSent:sum(packetBytes) 0
attr recordingmode sum(packetBytes)
attr source arpRequestSent
attr title "ARP request sent, sum(packetBytes)"
par GradysNetwork.farm.ipv4.lp typename "\"inet.common.MessageDispatcher\""
par GradysNetwork.farm.ipv4.lp displayStringTextFormat "\"processed %p pk (%l)\""
par GradysNetwork.farm.ipv4.lp forwardServiceRegistration true
par GradysNetwork.farm.ipv4.lp forwardProtocolRegistration true
par GradysNetwork.farm.ipv4 typename "\"inet.networklayer.ipv4.Ipv4NetworkLayer\""
par GradysNetwork.farm.ipv4 forwarding true
par GradysNetwork.farm.ipv4 multicastForwarding false
par GradysNetwork.farm.ipv4 interfaceTableModule "\"GradysNetwork.farm.interfaceTable\""
par GradysNetwork.farm.ipv4 displayStringTextFormat "\"%i\""
par GradysNetwork.farm.nl typename "\"inet.common.MessageDispatcher\""
par GradysNetwork.farm.nl displayStringTextFormat "\"processed %p pk (%l)\""
par GradysNetwork.farm.nl forwardServiceRegistration true
par GradysNetwork.farm.nl forwardProtocolRegistration true
par GradysNetwork.farm.udp typename "\"inet.transportlayer.udp.Udp\""
par GradysNetwork.farm.udp interfaceTableModule "\"GradysNetwork.farm.interfaceTable\""
par GradysNetwork.farm.udp icmpModule "\"^.ipv4.icmp\""
par GradysNetwork.farm.udp icmpv6Module "\"^.ipv6.icmpv6\""
par GradysNetwork.farm.udp crcMode "\"declared\""
attr enum disabled,declared,computed
par GradysNetwork.farm.udp defaultMulticastLoop true
scalar GradysNetwork.farm.udp packetReceived:count 0
attr interpolationmode none
attr recordingmode count
attr source packetReceived
attr title "packets received, count"
scalar GradysNetwork.farm.udp packetReceived:sum(packetBytes) 0
attr interpolationmode none
attr recordingmode sum(packetBytes)
attr source packetReceived
attr title "packets received, sum(packetBytes)"
scalar GradysNetwork.farm.udp packetSent:count 0
attr interpolationmode none
attr recordingmode count
attr source packetSent
attr title "packets sent, count"
scalar GradysNetwork.farm.udp packetSent:sum(packetBytes) 0
attr interpolationmode none
attr recordingmode sum(packetBytes)
attr source packetSent
attr title "packets sent, sum(packetBytes)"
scalar GradysNetwork.farm.udp passedUpPk:count 0
attr interpolationmode none
attr recordingmode count
attr source packetSentToUpper
attr title "packets passed up, count"
scalar GradysNetwork.farm.udp droppedPkWrongPort:count 0
attr interpolationmode none
attr recordingmode count
attr source packetDropReasonIsNoPortFound(packetDropped)
attr title "packets dropped (wrong port), count"
scalar GradysNetwork.farm.udp droppedPkBadChecksum:count 0
attr interpolationmode none
attr recordingmode count
attr source packetDropReasonIsIncorrectlyReceived(packetDropped)
attr title "packets dropped (checksum error), count"
par GradysNetwork.farm.tcp typename "\"inet.transportlayer.tcp.Tcp\""
par GradysNetwork.farm.tcp crcMode "\"declared\""
attr enum declared,computed
par GradysNetwork.farm.tcp advertisedWindow 7504
par GradysNetwork.farm.tcp delayedAcksEnabled false
par GradysNetwork.farm.tcp nagleEnabled true
par GradysNetwork.farm.tcp limitedTransmitEnabled false
par GradysNetwork.farm.tcp increasedIWEnabled false
par GradysNetwork.farm.tcp sackSupport false
par GradysNetwork.farm.tcp windowScalingSupport false
par GradysNetwork.farm.tcp windowScalingFactor -1
par GradysNetwork.farm.tcp timestampSupport false
par GradysNetwork.farm.tcp mss 536
par GradysNetwork.farm.tcp msl 120s
attr unit s
par GradysNetwork.farm.tcp tcpAlgorithmClass "\"TcpReno\""
attr enum TcpVegas,TcpWestwood,TcpNewReno,TcpReno,TcpTahoe,TcpNoCongestionControl
par GradysNetwork.farm.tcp useDataNotification false
par GradysNetwork.farm.tcp dupthresh 3
par GradysNetwork.farm.tcp initialSsthresh 4294967295
par GradysNetwork.farm.tcp stopOperationExtraTime 0s
attr unit s
par GradysNetwork.farm.tcp stopOperationTimeout 2s
attr unit s
par GradysNetwork.farm.tcp ecnWillingness false
par GradysNetwork.farm.tcp dctcpGamma 0.0625
par GradysNetwork.farm.tn typename "\"inet.common.MessageDispatcher\""
par GradysNetwork.farm.tn displayStringTextFormat "\"processed %p pk (%l)\""
par GradysNetwork.farm.tn forwardServiceRegistration true
par GradysNetwork.farm.tn forwardProtocolRegistration true
par GradysNetwork.farm.at typename "\"inet.common.MessageDispatcher\""
par GradysNetwork.farm.at displayStringTextFormat "\"processed %p pk (%l)\""
par GradysNetwork.farm.at forwardServiceRegistration true
par GradysNetwork.farm.at forwardProtocolRegistration true
par GradysNetwork.farm.protocol typename "\"gradys_simulations.protocols.base.CommunicationProtocolBase\""
par GradysNetwork.farm typename "\"gradys_simulations.FarmNode\""
par GradysNetwork.farm hasStatus false
par GradysNetwork.farm osgModel "\"\""
par GradysNetwork.farm osgModelColor "\"\""
par GradysNetwork.farm canvasImage "\"\""
par GradysNetwork.farm canvasImageColor "\"\""
par GradysNetwork.farm recordPcap false
par GradysNetwork.farm numPcapRecorders 0
par GradysNetwork.farm numLoInterfaces 1
par GradysNetwork.farm numWlanInterfaces 1
par GradysNetwork.farm numEthInterfaces 0
par GradysNetwork.farm numPppInterfaces 0
par GradysNetwork.farm numTunInterfaces 0
par GradysNetwork.farm numVirtInterfaces 0
par GradysNetwork.farm fcsMode "\"declared\""
attr enum declared,computed
par GradysNetwork.farm hasIpv4 true
par GradysNetwork.farm hasIpv6 false
par GradysNetwork.farm hasGn false
par GradysNetwork.farm forwarding true
par GradysNetwork.farm multicastForwarding false
par GradysNetwork.farm hasUdp true
par GradysNetwork.farm hasTcp true
par GradysNetwork.farm hasSctp false
par GradysNetwork.farm numApps 0
par GradysNetwork.farm internalMobNodeId -1
attr mutable ""
par GradysNetwork.farm simulationIndexOfFirstNode 6
par GradysNetwork.farm nodeType 171
par GradysNetwork.farm numFailures 0
par GradysNetwork.farm mobileNodeId "\"0\""
attr mutable ""
par GradysNetwork.farm trackUuid "\"01111111-1111-1111-1111-333333333333\""
attr mutable ""
par GradysNetwork.farm tracking true
attr mutable ""
par GradysNetwork.farm round 0
par GradysNetwork typename "\"sim.quadrant_simulation.GradysNetwork\""
par GradysNetwork numUAVs 4
par GradysNetwork numSensors 8

