file 5615972 1706124533                                         
version 2
run Wifi-Farm-100-4U-8O-0-20231130-01:47:40-1927
attr configname Wifi-Farm-100-4U-8O
attr datetime 20231130-01:47:40
attr datetimef 20231130-014740
attr experiment Wifi-Farm-100-4U-8O
attr inifile omnetpp.ini
attr iterationvars ""
attr iterationvarsd ""
attr iterationvarsf ""
attr measurement ""
attr network GradysNetwork
attr processid 1927
attr repetition 0
attr replication #0
attr resultdir results
attr runnumber 0
attr seedset 0
config image-path ../../../../../../workspace/inet4.5/images
config extends Wifi
config description "Simulation with four drones with wifi radio only in a 100ha farm with 8 oxen"
config *.numUAVs 4
config *.numSensors 8
config *.quads[*].protocol.typename QuadrantDroneProtocol
config *.quads[*].protocol.timeoutDuration 5s
config *.quads[0].app[*].startTime "normal(1s, 1s)"
config *.quads[1].app[*].startTime "normal(10s, 1s)"
config *.quads[2].app[*].startTime "normal(20s, 1s)"
config *.quads[3].app[*].startTime "normal(30s, 1s)"
config *.quads[0].app[0].destAddresses "\"quads[1] quads[2] quads[3] sensors[0] sensors[1] sensors[2] sensors[3] sensors[4] sensors[5] sensors[6] sensors[7] groundStation\""
config *.quads[1].app[0].destAddresses "\"quads[0] quads[2] quads[3] sensors[0] sensors[1] sensors[2] sensors[3] sensors[4] sensors[5] sensors[6] sensors[7] groundStation\""
config *.quads[2].app[0].destAddresses "\"quads[0] quads[1] quads[3] sensors[0] sensors[1] sensors[2] sensors[3] sensors[4] sensors[5] sensors[6] sensors[7] groundStation\""
config *.quads[3].app[0].destAddresses "\"quads[1] quads[2] quads[0] sensors[0] sensors[1] sensors[2] sensors[3] sensors[4] sensors[5] sensors[6] sensors[7] groundStation\""
config *.quads[0].mobility.startTime 2s
config *.quads[1].mobility.startTime 4s
config *.quads[2].mobility.startTime 6s
config *.quads[3].mobility.startTime 0s
config *.quads[0].mobility.waypointFile "\"paths/farm-100ha-drone-A.waypoints\""
config *.quads[1].mobility.waypointFile "\"paths/farm-100ha-drone-B.waypoints\""
config *.quads[2].mobility.waypointFile "\"paths/farm-100ha-drone-C.waypoints\""
config *.quads[3].mobility.waypointFile "\"paths/farm-100ha-fence.waypoints\""
config *.quads[*].numFailures 0
config *.sensors[0..7].protocol.typename QuadrantSensorProtocol
config *.sensors[*].app[0].destAddresses "\"quads[0] quads[1] quads[2] quads[3]\""
config *.groundStation.protocol.typename QuadrantGroundProtocol
config *.groundStation.app[0].destAddresses "\"quads[0] quads[1] quads[2] quads[3]\""
config network GradysNetwork
config description "Configure quads, ground stations and sensors for wifi only communication"
config *.quads[*].numApps 1
config *.quads[*].app[0].typename UdpCommunicationApp
config *.quads[*].app[0].localPort 1000
config *.quads[*].app[0].destPort 1000
config *.quads[*].app[0].sendInterval 1s
config *.quads[*].app[0].startTime 1s
config *.quads[*].app[0].stopTime -1s
config *.quads[*].app[0].messageLength 1454Byte
config *.quads[*].protocol.typename QuadrantDroneProtocol
config *.quads[*].mobility.typename DroneMobility
config *.quads[*].mobility.coordinateSystemModule "\"coordinateSystem\""
config *.quads[*].mobility.waypointProximity 1m
config *.quads[*].mobility.speed 10mps
config *.quads[*].mobility.homeLongitude -48.097798deg
config *.quads[*].mobility.homeLatitude -15.630554deg
config *.quads[*].mobility.waypointFile "\"paths/farm-100ha-fence.waypoints\""
config *.groundStation.numApps 1
config *.groundStation.app[0].typename UdpCommunicationApp
config *.groundStation.app[0].destPort 1000
config *.groundStation.app[0].localPort 1000
config *.groundStation.app[0].sendInterval 1s
config *.groundStation.app[0].messageLength 1454Byte
config *.groundStation.app[0].startTime 1s
config *.groundStation.protocol.typename QuadrantGroundProtocol
config *.groundStation.mobility.typename StationaryMobility
config *.groundStation.mobility.coordinateSystemModule "\"coordinateSystem\""
config *.groundStation.mobility.initialAltitude 0m
config *.groundStation.mobility.initialLatitude -15.630554deg
config *.groundStation.mobility.initialLongitude -48.097798deg
config *.numSensors 8
config *.sensors[*].numApps 1
config *.sensors[*].app[0].typename UdpCommunicationApp
config *.sensors[*].app[0].destPort 1000
config *.sensors[*].app[0].localPort 1000
config *.sensors[*].app[0].sendInterval 2s
config *.sensors[*].app[0].startTime exponential(1s)
config *.sensors[*].app[0].messageLength 1454Byte
config *.sensors[0..2].protocol.typename QuadrantSensorProtocol
config *.sensors[*].mobility.typename LinearMobility
config *.sensors[*].mobility.coordinateSystemModule "\"coordinateSystem\""
config *.sensors[*].mobility.constraintAreaMinX 10m
config *.sensors[*].mobility.constraintAreaMinY 10m
config *.sensors[*].mobility.constraintAreaMinZ 0m
config *.sensors[*].mobility.constraintAreaMaxX 150m
config *.sensors[*].mobility.constraintAreaMaxY 150m
config *.sensors[*].mobility.constraintAreaMaxZ 0m
config *.sensors[*].mobility.speed 5mps
config *.sensors[*].mobility.initialMovementHeading 10deg
config description "Setup visualisation, scene origin, sensors"
config cmdenv-status-frequency 10s
config cmdenv-output-file results/0.out
config allow-object-stealing-on-deletion true
config *.visualizer.osgVisualizer.typename IntegratedOsgVisualizer
config *.visualizer.osgVisualizer.sceneVisualizer.typename SceneOsgEarthVisualizer
config *.visualizer.osgVisualizer.sceneVisualizer.mapFile "\"map.earth\""
config *.visualizer.*.sceneVisualizer.sceneImageSize 100000m
config *.visualizer.*.sceneVisualizer.sceneMinX -1000m
config *.visualizer.*.sceneVisualizer.sceneMinY -1000m
config *.visualizer.*.sceneVisualizer.sceneMinZ -1000m
config *.visualizer.*.sceneVisualizer.sceneMaxX 1000m
config *.visualizer.*.sceneVisualizer.sceneMaxY 1000m
config *.visualizer.*.sceneVisualizer.sceneMaxZ 1000m
config *.visualizer.*.physicalLinkVisualizer.lineShift 0
config *.visualizer.*.dataLinkVisualizer.lineShift 0
config *.visualizer.*.networkRouteVisualizer.lineShift 0
config *.visualizer.*.networkNodeVisualizer.displayModuleName true
config *.visualizer.*.statisticVisualizer.signalName "\"dataLoad\""
config *.visualizer.*.statisticVisualizer.format "\"(%v)\""
config *.visualizer.*.statisticVisualizer.textColor "\"red\""
config *.visualizer.*.statisticVisualizer.font "\"Courier New, 12px, bold\""
config *.visualizer.*.statisticVisualizer.opacity 1
config *.visualizer.*.mobilityVisualizer.displayMobility true
config *.visualizer.*.mobilityVisualizer.displayPositions true
config *.visualizer.*.mobilityVisualizer.displayOrientations true
config *.visualizer.*.mobilityVisualizer.displayVelocities true
config *.visualizer.*.mobilityVisualizer.displayMovementTrails true
config *.visualizer.*.mobilityVisualizer.animationSpeed 10
config *.environment.ground.typename FlatGround
config *.quads[*].osgModel "\"3d/drone.ive.10.scale.0,0,90.rot\""
config **.mobility.initFromDisplayString false
config *.coordinateSystem.sceneLongitude -48.09779867095303deg
config *.coordinateSystem.sceneLatitude -15.630554093095277deg
config *.coordinateSystem.sceneHeading 0deg
config *.*[*].mobility.constraintAreaMinX -1000m
config *.*[*].mobility.constraintAreaMinY -1000m
config *.*[*].mobility.constraintAreaMinZ -1000m
config *.*[*].mobility.constraintAreaMaxX 1000m
config *.*[*].mobility.constraintAreaMaxY 1000m
config *.*[*].mobility.constraintAreaMaxZ 1000m
config *.*[*].wlan[*].radio.displayCommunicationRange true
config *.*[*].wlan[0].radio.displayInterferenceRange false
config *.sensor*.wlan[0].radio.energyConsumer.typename SensorStateBasedEpEnergyConsumer
config *.sensor*.wlan[0].radio.energyConsumer.offPowerConsumption 0mW
config *.sensor*.wlan[0].radio.energyConsumer.sleepPowerConsumption 1mW
config *.sensor*.wlan[0].radio.energyConsumer.switchingPowerConsumption 1mW
config *.sensor*.wlan[0].radio.energyConsumer.receiverIdlePowerConsumption 2mW
config *.sensor*.wlan[0].radio.energyConsumer.receiverBusyPowerConsumption 5mW
config *.sensor*.wlan[0].radio.energyConsumer.receiverReceivingPowerConsumption 10mW
config *.sensor*.wlan[0].radio.energyConsumer.transmitterIdlePowerConsumption 2mW
config *.sensor*.wlan[0].radio.energyConsumer.transmitterTransmittingPowerConsumption 100mW
config *.sensor*.energyStorage.typename IdealEpEnergyStorage
config *.farm.app[0].typename UdpCommunicationApp
config *.farm.app[0].localPort 1000
config *.farm.app[0].destPort 1000
config *.farm.app[0].sendInterval 1s
config *.farm.app[0].startTime 1s
config *.farm.app[0].stopTime -1s
config *.farm.app[0].messageLength 1454Byte
config *.farm.mobility.coordinateSystemModule "\"coordinateSystem\""
config *.farm.mobility.initialAltitude 0m
config *.farm.mobility.initialLatitude -15.630554deg
config *.farm.mobility.initialLongitude -48.097798deg

vector 0 GradysNetwork.quads[0].wlan[0].mac.dcf frameSequenceActive:vector ETV
attr autoWarmupFilter false
attr interpolationmode sample-hold
attr recordingmode vector
attr source warmup(count(frameSequenceStarted)-count(frameSequenceFinished))
attr title "frame sequence active"
0	170164 767 0 10685 0 10.007124429591 40 0 1 19 19
0	1625362 35 14324 14340 11 11.000054 2 0 1 1 1
0	1733015 124 16268 24693 11.005018945809 13.000054 6 0 1 3 3
0	3283664 356 29770 41234 14 17.000054 16 0 1 8 8
vector 1 GradysNetwork.quads[0].wlan[0].mac.dcf.channelAccess.inProgressFrames queueLength:vector ETV
attr autoWarmupFilter false
attr interpolationmode sample-hold
attr recordingmode vector
attr source "warmup(count(packetEnqueued) - count(packetDequeued))"
attr title "queue length"
1	170931 764 0 10685 0 10.007124429591 40 0 2 31 43
1	1625397 35 14324 14340 11 11.000054 2 0 1 1 1
1	1733139 124 16268 24693 11.005018945809 13.000054 6 0 1 3 3
1	3284020 194 29770 41234 14 17.000054 10 0 1 5 5
vector 2 GradysNetwork.quads[0].wlan[0].mac.dcf.channelAccess.contention backoffActive:vector ETV
attr autoWarmupFilter false
attr interpolationmode sample-hold
attr recordingmode vector
attr source warmup(count(backoffStarted)-count(backoffStopped))
attr title "backoff active"
2	171695 1624 0 10601 0 10.007030056218 76 0 1 37 37
2	1625432 28 14320 14323 11 11 2 0 1 1 1
2	1733263 323 16052 24676 11.004151874778 13 14 0 1 7 7
2	3284214 328 29761 41199 14 17 16 0 1 8 8
vector 3 GradysNetwork.quads[0].udp passedUpPk:vector(count) ETV
attr interpolationmode none
attr recordingmode vector(count)
attr source packetSentToUpper
attr title "packets passed up, count"
3	173319 1264 0 10737 0 10.007268726412 56 0 55 1540 56980
3	1222711 279 10840 13116 10.007657401405 10.25597278653 10 56 65 605 36685
3	1625460 43 14321 14641 11 11.000406859713 2 66 67 133 8845
3	1733586 1387 15131 26486 11.001749229024 13.003994218558 50 68 117 4625 438225
3	3284542 1483 26630 44493 13.044666781475 17.255128961989 53 118 170 7632 1111410
vector 4 GradysNetwork.quads[0].udp droppedPkWrongPort:vector(count) ETV
attr interpolationmode none
attr recordingmode vector(count)
attr source packetDropReasonIsNoPortFound(packetDropped)
attr title "packets dropped (wrong port), count"
4	174583 9 0 0 0 0 1 0 0 0 0
vector 5 GradysNetwork.quads[0].udp droppedPkBadChecksum:vector(count) ETV
attr interpolationmode none
attr recordingmode vector(count)
attr source packetDropReasonIsIncorrectlyReceived(packetDropped)
attr title "packets dropped (checksum error), count"
5	174592 9 0 0 0 0 1 0 0 0 0
vector 6 GradysNetwork.quads[1].wlan[0].mac.dcf frameSequenceActive:vector ETV
attr autoWarmupFilter false
attr interpolationmode sample-hold
attr recordingmode vector
attr source warmup(count(frameSequenceStarted)-count(frameSequenceFinished))
attr title "frame sequence active"
6	174601 367 0 7423 0 9.256668585607 16 0 1 7 7
6	1222990 267 11095 13753 10.251004747152 10.259565265001 10 0 1 5 5
6	1734973 108 17188 22145 11.251004747152 12.251058747152 4 0 1 2 2
6	3286025 324 26949 42831 13.251004747152 17.251058747152 12 0 1 6 6
vector 7 GradysNetwork.quads[1].wlan[0].mac.dcf.channelAccess.inProgressFrames queueLength:vector ETV
attr autoWarmupFilter false
attr interpolationmode sample-hold
attr recordingmode vector
attr source "warmup(count(packetEnqueued) - count(packetDequeued))"
attr title "queue length"
7	174968 367 0 7423 0 9.256668585607 16 0 2 17 27
7	1223257 160 11095 13753 10.251004747152 10.259565265001 6 0 1 3 3
7	1735081 108 17188 22145 11.251004747152 12.251058747152 4 0 1 2 2
7	3286349 324 26949 42831 13.251004747152 17.251058747152 12 0 1 6 6
vector 8 GradysNetwork.quads[1].wlan[0].mac.dcf.channelAccess.contention backoffActive:vector ETV
attr autoWarmupFilter false
attr interpolationmode sample-hold
attr recordingmode vector
attr source warmup(count(backoffStarted)-count(backoffStopped))
attr title "backoff active"
8	175335 1212 0 7345 0 9.256574243655 50 0 1 24 24
8	1223417 1228 11091 13662 10.251004747152 10.25947047904 46 0 1 23 23
8	1735189 108 17184 22128 11.251004747152 12.251004747152 4 0 1 2 2
8	3286673 324 26945 42814 13.251004747152 17.251004747152 12 0 1 6 6
vector 9 GradysNetwork.quads[1].udp passedUpPk:vector(count) ETV
attr interpolationmode none
attr recordingmode vector(count)
attr source packetSentToUpper
attr title "packets passed up, count"
9	176547 578 0 10146 0 10.005798200448 23 0 22 253 3795
9	1224645 278 11092 13796 10.251004747152 10.259969489372 10 23 32 275 7645
9	1625503 138 13914 14544 10.26299810167 11.00019842986 5 33 37 175 6135
9	1735297 1308 14828 25885 11.001043523252 13.002383170151 47 38 84 2867 183535
9	3286997 3020 26946 44993 13.251004747152 17.808423428189 105 85 189 14385 2067205
vector 10 GradysNetwork.quads[1].udp droppedPkWrongPort:vector(count) ETV
attr interpolationmode none
attr recordingmode vector(count)
attr source packetDropReasonIsNoPortFound(packetDropped)
attr title "packets dropped (wrong port), count"
10	177125 10 0 0 0 0 1 0 0 0 0
vector 11 GradysNetwork.quads[1].udp droppedPkBadChecksum:vector(count) ETV
attr interpolationmode none
attr recordingmode vector(count)
attr source packetDropReasonIsIncorrectlyReceived(packetDropped)
attr title "packets dropped (checksum error), count"
11	177135 10 0 0 0 0 1 0 0 0 0
vector 12 GradysNetwork.quads[2].wlan[0].mac.dcf frameSequenceActive:vector ETV
attr autoWarmupFilter false
attr interpolationmode sample-hold
attr recordingmode vector
attr source warmup(count(frameSequenceStarted)-count(frameSequenceFinished))
attr title "frame sequence active"
12	177145 20 0 0 0 0 2 0 0 0 0
vector 13 GradysNetwork.quads[2].wlan[0].mac.dcf.channelAccess.inProgressFrames queueLength:vector ETV
attr autoWarmupFilter false
attr interpolationmode sample-hold
attr recordingmode vector
attr source "warmup(count(packetEnqueued) - count(packetDequeued))"
attr title "queue length"
13	177165 20 0 0 0 0 2 0 0 0 0
vector 14 GradysNetwork.quads[2].wlan[0].mac.dcf.channelAccess.contention backoffActive:vector ETV
attr autoWarmupFilter false
attr interpolationmode sample-hold
attr recordingmode vector
attr source warmup(count(backoffStarted)-count(backoffStopped))
attr title "backoff active"
14	177185 20 0 0 0 0 2 0 0 0 0
vector 15 GradysNetwork.quads[2].udp passedUpPk:vector(count) ETV
attr interpolationmode none
attr recordingmode vector(count)
attr source packetSentToUpper
attr title "packets passed up, count"
15	177205 10 0 0 0 0 1 0 0 0 0
vector 16 GradysNetwork.quads[2].udp droppedPkWrongPort:vector(count) ETV
attr interpolationmode none
attr recordingmode vector(count)
attr source packetDropReasonIsNoPortFound(packetDropped)
attr title "packets dropped (wrong port), count"
16	177215 10 0 0 0 0 1 0 0 0 0
vector 17 GradysNetwork.quads[2].udp droppedPkBadChecksum:vector(count) ETV
attr interpolationmode none
attr recordingmode vector(count)
attr source packetDropReasonIsIncorrectlyReceived(packetDropped)
attr title "packets dropped (checksum error), count"
17	177225 10 0 0 0 0 1 0 0 0 0
vector 18 GradysNetwork.quads[3].wlan[0].mac.dcf frameSequenceActive:vector ETV
attr autoWarmupFilter false
attr interpolationmode sample-hold
attr recordingmode vector
attr source warmup(count(frameSequenceStarted)-count(frameSequenceFinished))
attr title "frame sequence active"
18	177235 20 0 0 0 0 2 0 0 0 0
vector 19 GradysNetwork.quads[3].wlan[0].mac.dcf.channelAccess.inProgressFrames queueLength:vector ETV
attr autoWarmupFilter false
attr interpolationmode sample-hold
attr recordingmode vector
attr source "warmup(count(packetEnqueued) - count(packetDequeued))"
attr title "queue length"
19	177255 20 0 0 0 0 2 0 0 0 0
vector 20 GradysNetwork.quads[3].wlan[0].mac.dcf.channelAccess.contention backoffActive:vector ETV
attr autoWarmupFilter false
attr interpolationmode sample-hold
attr recordingmode vector
attr source warmup(count(backoffStarted)-count(backoffStopped))
attr title "backoff active"
20	177275 20 0 0 0 0 2 0 0 0 0
vector 21 GradysNetwork.quads[3].udp passedUpPk:vector(count) ETV
attr interpolationmode none
attr recordingmode vector(count)
attr source packetSentToUpper
attr title "packets passed up, count"
21	177295 10 0 0 0 0 1 0 0 0 0
vector 22 GradysNetwork.quads[3].udp droppedPkWrongPort:vector(count) ETV
attr interpolationmode none
attr recordingmode vector(count)
attr source packetDropReasonIsNoPortFound(packetDropped)
attr title "packets dropped (wrong port), count"
22	177305 10 0 0 0 0 1 0 0 0 0
vector 23 GradysNetwork.quads[3].udp droppedPkBadChecksum:vector(count) ETV
attr interpolationmode none
attr recordingmode vector(count)
attr source packetDropReasonIsIncorrectlyReceived(packetDropped)
attr title "packets dropped (checksum error), count"
23	177315 10 0 0 0 0 1 0 0 0 0
vector 24 GradysNetwork.sensors[0].wlan[0].mac.dcf frameSequenceActive:vector ETV
attr autoWarmupFilter false
attr interpolationmode sample-hold
attr recordingmode vector
attr source warmup(count(frameSequenceStarted)-count(frameSequenceFinished))
attr title "frame sequence active"
24	177325 650 0 9898 0 10.004741147722 26 0 1 12 12
24	1224923 164 11485 11906 10.25150602469 10.252769296207 6 0 1 3 3
24	1625641 56 14061 14148 10.653882567221 10.653981148802 2 0 1 1 1
24	1736605 723 14998 26036 11.00138639038 13.002595885815 26 0 1 13 13
24	3290017 1228 28156 44456 13.253469413116 17.255004905728 44 0 1 22 22
vector 25 GradysNetwork.sensors[0].wlan[0].mac.dcf.channelAccess.inProgressFrames queueLength:vector ETV
attr autoWarmupFilter false
attr interpolationmode sample-hold
attr recordingmode vector
attr source "warmup(count(packetEnqueued) - count(packetDequeued))"
attr title "queue length"
25	177975 596 0 9898 0 10.004741147722 24 0 2 15 19
25	1225087 110 11485 11906 10.25150602469 10.252769296207 4 0 2 4 6
25	1625697 56 14061 14148 10.653882567221 10.653981148802 2 0 1 1 1
25	1737328 611 14998 26036 11.00138639038 13.002595885815 22 0 2 21 31
25	3291245 1007 28156 44456 13.253469413116 17.255004905728 36 0 2 34 50
vector 26 GradysNetwork.sensors[0].wlan[0].mac.dcf.channelAccess.contention backoffActive:vector ETV
attr autoWarmupFilter false
attr interpolationmode sample-hold
attr recordingmode vector
attr source warmup(count(backoffStarted)-count(backoffStopped))
attr title "backoff active"
26	178571 2250 0 9814 0 10.004642659495 86 0 1 42 42
26	1225197 547 11222 11814 10.251059042846 10.25267070486 20 0 1 10 10
26	1625753 448 14059 14799 10.653882567221 11.000989409215 16 0 1 8 8
26	1737939 4787 14816 25950 11.001043409215 13.002497437537 172 0 1 86 86
26	3292252 9318 27044 44368 13.251059012637 17.254906437816 334 0 1 167 167
vector 27 GradysNetwork.sensors[0].udp passedUpPk:vector(count) ETV
attr interpolationmode none
attr recordingmode vector(count)
attr source packetSentToUpper
attr title "packets passed up, count"
27	180821 1210 0 8065 0 10.00005424416 46 0 45 1035 31395
27	1225744 29 11211 11211 10.251059042846 10.251059042846 1 46 46 46 2116
27	1626201 29 14408 14408 11.000054235254 11.000054235254 1 47 47 47 2209
27	1742726 115 17272 24761 11.251059031121 13.000054224147 4 48 51 198 9806
27	3301570 231 27033 42899 13.251059012637 17.251058981222 8 52 59 444 24684
vector 28 GradysNetwork.sensors[0].udp droppedPkWrongPort:vector(count) ETV
attr interpolationmode none
attr recordingmode vector(count)
attr source packetDropReasonIsNoPortFound(packetDropped)
attr title "packets dropped (wrong port), count"
28	182031 10 0 0 0 0 1 0 0 0 0
vector 29 GradysNetwork.sensors[0].udp droppedPkBadChecksum:vector(count) ETV
attr interpolationmode none
attr recordingmode vector(count)
attr source packetDropReasonIsIncorrectlyReceived(packetDropped)
attr title "packets dropped (checksum error), count"
29	182041 10 0 0 0 0 1 0 0 0 0
vector 30 GradysNetwork.sensors[1].wlan[0].mac.dcf frameSequenceActive:vector ETV
attr autoWarmupFilter false
attr interpolationmode sample-hold
attr recordingmode vector
attr source warmup(count(frameSequenceStarted)-count(frameSequenceFinished))
attr title "frame sequence active"
30	182051 596 0 10382 0 10.006511225999 24 0 1 11 11
30	1225773 224 11384 13556 10.251337540906 10.257632945634 8 0 1 4 4
30	1626230 84 13877 14794 10.262943795553 11.000989232921 3 0 1 2 2
30	1742841 753 14887 25830 11.001087813582 13.002258791964 27 0 1 13 13
30	3301801 1331 27448 45047 13.251894518004 17.808467592102 48 0 1 24 24
vector 31 GradysNetwork.sensors[1].wlan[0].mac.dcf.channelAccess.inProgressFrames queueLength:vector ETV
attr autoWarmupFilter false
attr interpolationmode sample-hold
attr recordingmode vector
attr source "warmup(count(packetEnqueued) - count(packetDequeued))"
attr title "queue length"
31	182647 596 0 10382 0 10.006511225999 24 0 2 15 19
31	1225997 84 11384 11469 10.251337540906 10.251436025015 3 1 2 4 6
31	1626314 84 13973 14794 10.263042407786 11.000989232921 3 0 2 3 5
31	1743594 557 14887 25830 11.001087813582 13.002258791964 20 0 2 18 26
31	3303132 1163 27448 45047 13.251894518004 17.808467592102 42 0 2 39 57
vector 32 GradysNetwork.sensors[1].wlan[0].mac.dcf.channelAccess.contention backoffActive:vector ETV
attr autoWarmupFilter false
attr interpolationmode sample-hold
attr recordingmode vector
attr source warmup(count(backoffStarted)-count(backoffStopped))
attr title "backoff active"
32	183243 2464 0 10296 0 10.00641273136 94 0 1 46 46
32	1226081 2571 11242 13791 10.251059053526 10.259969486704 92 0 1 46 46
32	1626398 448 13854 14793 10.260013795553 11.000989232921 16 0 1 8 8
32	1744151 5299 14887 25748 11.001087813582 13.002160421159 190 0 1 95 95
32	3304295 7802 27027 44964 13.251058990952 17.808369264275 280 0 1 140 140
vector 33 GradysNetwork.sensors[1].udp passedUpPk:vector(count) ETV
attr interpolationmode none
attr recordingmode vector(count)
attr source packetSentToUpper
attr title "packets passed up, count"
33	185707 1076 0 9134 0 10.002512407684 41 0 40 820 22140
33	1228652 29 11231 11231 10.251059053526 10.251059053526 1 41 41 41 1681
33	1626846 29 14391 14391 11.000054226145 11.000054226145 1 42 42 42 1764
33	1749450 116 17289 24727 11.251059032185 13.000054185445 4 43 46 178 7926
33	3312097 261 27016 42882 13.251058990952 17.251058919124 9 47 55 459 23469
vector 34 GradysNetwork.sensors[1].udp droppedPkWrongPort:vector(count) ETV
attr interpolationmode none
attr recordingmode vector(count)
attr source packetDropReasonIsNoPortFound(packetDropped)
attr title "packets dropped (wrong port), count"
34	186783 10 0 0 0 0 1 0 0 0 0
vector 35 GradysNetwork.sensors[1].udp droppedPkBadChecksum:vector(count) ETV
attr interpolationmode none
attr recordingmode vector(count)
attr source packetDropReasonIsIncorrectlyReceived(packetDropped)
attr title "packets dropped (checksum error), count"
35	186793 10 0 0 0 0 1 0 0 0 0
vector 36 GradysNetwork.sensors[2].wlan[0].mac.dcf frameSequenceActive:vector ETV
attr autoWarmupFilter false
attr interpolationmode sample-hold
attr recordingmode vector
attr source warmup(count(frameSequenceStarted)-count(frameSequenceFinished))
attr title "frame sequence active"
36	186803 490 0 10007 0 10.00536968149 20 0 1 9 9
36	1228681 362 11281 13760 10.25116903916 10.259915197392 13 0 1 7 7
36	1626875 28 13849 13849 10.260013781352 10.260013781352 1 0 0 0 0
36	1749566 863 14895 26598 11.001217813439 13.044612508308 31 0 1 16 16
36	3312358 808 26691 44660 13.044711054642 17.255361787784 29 0 1 14 14
vector 37 GradysNetwork.sensors[2].wlan[0].mac.dcf.channelAccess.inProgressFrames queueLength:vector ETV
attr autoWarmupFilter false
attr interpolationmode sample-hold
attr recordingmode vector
attr source "warmup(count(packetEnqueued) - count(packetDequeued))"
attr title "queue length"
37	187293 490 0 10007 0 10.00536968149 20 0 2 11 13
37	1229043 248 11281 12939 10.25116903916 10.255229993121 9 0 2 11 17
37	1626903 28 13849 13849 10.260013781352 10.260013781352 1 0 0 0 0
37	1750429 642 14895 26598 11.001217813439 13.044612508308 23 0 2 22 32
37	3313166 697 26691 44660 13.044711054642 17.255361787784 25 0 2 22 32
vector 38 GradysNetwork.sensors[2].wlan[0].mac.dcf.channelAccess.contention backoffActive:vector ETV
attr autoWarmupFilter false
attr interpolationmode sample-hold
attr recordingmode vector
attr source warmup(count(backoffStarted)-count(backoffStopped))
attr title "backoff active"
38	187783 2458 0 9915 0 10.005271162902 94 0 1 46 46
38	1229291 1783 11189 13759 10.25105903916 10.259915197392 64 0 1 32 32
38	1626931 392 14453 14802 11.000054261698 11.000989522233 14 0 1 7 7
38	1751071 6744 14822 26597 11.001043522233 13.044612508308 242 0 1 121 121
38	3313863 7256 27098 44566 13.251059038516 17.255263245245 260 0 1 130 130
vector 39 GradysNetwork.sensors[2].udp passedUpPk:vector(count) ETV
attr interpolationmode none
attr recordingmode vector(count)
attr source packetSentToUpper
attr title "packets passed up, count"
39	190241 1158 0 8116 0 10.000054259287 44 0 43 946 27434
39	1231074 28 11179 11179 10.25105903916 10.25105903916 1 44 44 44 1936
39	1627323 29 14442 14442 11.000054261698 11.000054261698 1 45 45 45 2025
39	1757815 115 17323 24812 11.251059036976 13.000054272828 4 46 49 190 9030
39	3321119 144 27087 42950 13.251059038516 17.251059018472 5 50 54 260 13530
vector 40 GradysNetwork.sensors[2].udp droppedPkWrongPort:vector(count) ETV
attr interpolationmode none
attr recordingmode vector(count)
attr source packetDropReasonIsNoPortFound(packetDropped)
attr title "packets dropped (wrong port), count"
40	191399 10 0 0 0 0 1 0 0 0 0
vector 41 GradysNetwork.sensors[2].udp droppedPkBadChecksum:vector(count) ETV
attr interpolationmode none
attr recordingmode vector(count)
attr source packetDropReasonIsIncorrectlyReceived(packetDropped)
attr title "packets dropped (checksum error), count"
41	191409 10 0 0 0 0 1 0 0 0 0
vector 42 GradysNetwork.sensors[3].wlan[0].mac.dcf frameSequenceActive:vector ETV
attr autoWarmupFilter false
attr interpolationmode sample-hold
attr recordingmode vector
attr source warmup(count(frameSequenceStarted)-count(frameSequenceFinished))
attr title "frame sequence active"
42	191419 604 0 10243 0 10.006122377769 24 0 1 11 11
42	1231102 280 10905 13641 10.008091588102 10.258680658855 10 0 1 5 5
42	1757930 832 15385 26345 11.00257040979 13.00324146688 30 0 1 15 15
42	3321263 890 26823 44164 13.150169928676 17.253999520619 32 0 1 16 16
vector 43 GradysNetwork.sensors[3].wlan[0].mac.dcf.channelAccess.inProgressFrames queueLength:vector ETV
attr autoWarmupFilter false
attr interpolationmode sample-hold
attr recordingmode vector
attr source "warmup(count(packetEnqueued) - count(packetDequeued))"
attr title "queue length"
43	192023 494 0 10243 0 10.006122377769 20 0 2 13 17
43	1231382 168 10905 13641 10.008091588102 10.258680658855 6 0 2 5 7
43	1758762 611 15385 26345 11.00257040979 13.00324146688 22 0 2 21 31
43	3322153 725 26823 44164 13.150169928676 17.253999520619 26 0 2 23 33
vector 44 GradysNetwork.sensors[3].wlan[0].mac.dcf.channelAccess.contention backoffActive:vector ETV
attr autoWarmupFilter false
attr interpolationmode sample-hold
attr recordingmode vector
attr source warmup(count(backoffStarted)-count(backoffStopped))
attr title "backoff active"
44	192517 3681 0 10745 0 10.00726880745 140 0 1 69 69
44	1231550 2402 10785 13557 10.007312913103 10.258582299225 86 0 1 43 43
44	1627352 333 14385 14805 11.000054203882 11.000989586512 12 0 1 6 6
44	1759373 8705 14833 26252 11.001043586512 13.003142982919 312 0 1 156 156
44	3322878 6469 26821 44066 13.150169928676 17.253900934018 232 0 1 116 116
vector 45 GradysNetwork.sensors[3].udp passedUpPk:vector(count) ETV
attr interpolationmode none
attr recordingmode vector(count)
attr source packetSentToUpper
attr title "packets passed up, count"
45	196198 800 0 8031 0 10.00005418657 31 0 30 465 9455
45	1233952 28 11128 11128 10.25105892689 10.25105892689 1 31 31 31 961
45	1627685 29 14374 14374 11.000054203882 11.000054203882 1 32 32 32 1024
45	1768078 116 17221 24778 11.251058938301 13.000054241917 4 33 36 138 4766
45	3329347 145 26999 42967 13.251058967243 17.251059040394 5 37 41 195 7615
vector 46 GradysNetwork.sensors[3].udp droppedPkWrongPort:vector(count) ETV
attr interpolationmode none
attr recordingmode vector(count)
attr source packetDropReasonIsNoPortFound(packetDropped)
attr title "packets dropped (wrong port), count"
46	196998 10 0 0 0 0 1 0 0 0 0
vector 47 GradysNetwork.sensors[3].udp droppedPkBadChecksum:vector(count) ETV
attr interpolationmode none
attr recordingmode vector(count)
attr source packetDropReasonIsIncorrectlyReceived(packetDropped)
attr title "packets dropped (checksum error), count"
47	197008 10 0 0 0 0 1 0 0 0 0
vector 48 GradysNetwork.sensors[4].wlan[0].mac.dcf frameSequenceActive:vector ETV
attr autoWarmupFilter false
attr interpolationmode sample-hold
attr recordingmode vector
attr source warmup(count(frameSequenceStarted)-count(frameSequenceFinished))
attr title "frame sequence active"
48	197018 598 0 9771 0 10.004404619525 24 0 1 11 11
48	1233980 112 11926 12328 10.252899368247 10.253583308382 4 0 1 2 2
48	1768194 1230 15308 26246 11.002112128915 13.003073033788 44 0 1 22 22
48	3329492 839 28072 43547 13.253201260944 17.252469216996 30 0 1 15 15
vector 49 GradysNetwork.sensors[4].wlan[0].mac.dcf.channelAccess.inProgressFrames queueLength:vector ETV
attr autoWarmupFilter false
attr interpolationmode sample-hold
attr recordingmode vector
attr source "warmup(count(packetEnqueued) - count(packetDequeued))"
attr title "queue length"
49	197616 492 0 9771 0 10.004404619525 20 0 2 13 17
49	1234092 56 11926 12328 10.252899368247 10.253583308382 2 0 1 1 1
49	1769424 839 15308 26246 11.002112128915 13.003073033788 30 0 2 31 47
49	3330331 672 28072 43547 13.253201260944 17.252469216996 24 0 2 22 32
vector 50 GradysNetwork.sensors[4].wlan[0].mac.dcf.channelAccess.contention backoffActive:vector ETV
attr autoWarmupFilter false
attr interpolationmode sample-hold
attr recordingmode vector
attr source warmup(count(backoffStarted)-count(backoffStopped))
attr title "backoff active"
50	198108 2565 0 9737 0 10.004354619525 98 0 1 48 48
50	1234148 1006 11262 12228 10.251059114867 10.253484572958 36 0 1 18 18
50	1627714 389 14503 14804 11.000054337142 11.000989584969 14 0 1 7 7
50	1770263 6978 14831 26150 11.001043584969 13.002974448095 250 0 1 125 125
50	3331003 7032 27115 43455 13.251059045843 17.252370722896 252 0 1 126 126
vector 51 GradysNetwork.sensors[4].udp passedUpPk:vector(count) ETV
attr interpolationmode none
attr recordingmode vector(count)
attr source packetSentToUpper
attr title "packets passed up, count"
51	200673 1054 0 8168 0 10.000054337878 40 0 39 780 20540
51	1235154 29 11252 11252 10.251059114867 10.251059114867 1 40 40 40 1600
51	1628103 29 14493 14493 11.000054337142 11.000054337142 1 41 41 41 1681
51	1777241 116 17357 24830 11.251059102295 13.000054292899 4 42 45 174 7574
51	3338035 141 27104 42933 13.251059045843 17.2510589942 5 46 50 240 11530
vector 52 GradysNetwork.sensors[4].udp droppedPkWrongPort:vector(count) ETV
attr interpolationmode none
attr recordingmode vector(count)
attr source packetDropReasonIsNoPortFound(packetDropped)
attr title "packets dropped (wrong port), count"
52	201727 10 0 0 0 0 1 0 0 0 0
vector 53 GradysNetwork.sensors[4].udp droppedPkBadChecksum:vector(count) ETV
attr interpolationmode none
attr recordingmode vector(count)
attr source packetDropReasonIsIncorrectlyReceived(packetDropped)
attr title "packets dropped (checksum error), count"
53	201737 10 0 0 0 0 1 0 0 0 0
vector 54 GradysNetwork.sensors[5].wlan[0].mac.dcf frameSequenceActive:vector ETV
attr autoWarmupFilter false
attr interpolationmode sample-hold
attr recordingmode vector
attr source warmup(count(frameSequenceStarted)-count(frameSequenceFinished))
attr title "frame sequence active"
54	201747 623 0 10707 0 10.007214525177 25 0 1 12 12
54	1235183 196 10788 12731 10.007312927646 10.254732786519 7 0 1 3 3
54	1628132 112 14510 14690 11.000144183842 11.000451043548 4 0 1 2 2
54	1777357 615 17474 25728 11.251277612619 13.002010389786 22 0 1 11 11
54	3338176 1282 27444 44923 13.251894482023 17.614100398061 46 0 1 23 23
vector 55 GradysNetwork.sensors[5].wlan[0].mac.dcf.channelAccess.inProgressFrames queueLength:vector ETV
attr autoWarmupFilter false
attr interpolationmode sample-hold
attr recordingmode vector
attr source "warmup(count(packetEnqueued) - count(packetDequeued))"
attr title "queue length"
55	202370 569 0 10707 0 10.007214525177 23 0 2 15 19
55	1235379 140 10788 12731 10.007312927646 10.254732786519 5 0 2 4 6
55	1628244 112 14510 14690 11.000144183842 11.000451043548 4 0 2 4 6
55	1777972 502 17474 25728 11.251277612619 13.002010389786 18 0 2 17 25
55	3339458 1169 27444 44923 13.251894482023 17.614100398061 42 0 2 39 57
vector 56 GradysNetwork.sensors[5].wlan[0].mac.dcf.channelAccess.contention backoffActive:vector ETV
attr autoWarmupFilter false
attr interpolationmode sample-hold
attr recordingmode vector
attr source warmup(count(backoffStarted)-count(backoffStopped))
attr title "backoff active"
56	202939 2261 0 10706 0 10.007214525177 86 0 1 42 42
56	1235519 1399 11173 12645 10.251059007119 10.254634266724 50 0 1 25 25
56	1628356 112 14368 14610 11.000054183842 11.000352675877 4 0 1 2 2
56	1778474 3674 17252 25648 11.251058988617 13.001912081718 132 0 1 66 66
56	3340627 7023 26993 44841 13.251058954968 17.614002074893 252 0 1 126 126
vector 57 GradysNetwork.sensors[5].udp passedUpPk:vector(count) ETV
attr interpolationmode none
attr recordingmode vector(count)
attr source packetSentToUpper
attr title "packets passed up, count"
57	205200 1071 0 8048 0 10.000054201366 41 0 40 820 22140
57	1236918 29 11162 11162 10.251059007119 10.251059007119 1 41 41 41 1681
57	1628468 29 14357 14357 11.000054183842 11.000054183842 1 42 42 42 1764
57	1782148 116 17241 24710 11.251058988617 13.000054154059 4 43 46 178 7926
57	3347650 258 26982 42865 13.251058954968 17.251058910549 9 47 55 459 23469
vector 58 GradysNetwork.sensors[5].udp droppedPkWrongPort:vector(count) ETV
attr interpolationmode none
attr recordingmode vector(count)
attr source packetDropReasonIsNoPortFound(packetDropped)
attr title "packets dropped (wrong port), count"
58	206271 10 0 0 0 0 1 0 0 0 0
vector 59 GradysNetwork.sensors[5].udp droppedPkBadChecksum:vector(count) ETV
attr interpolationmode none
attr recordingmode vector(count)
attr source packetDropReasonIsIncorrectlyReceived(packetDropped)
attr title "packets dropped (checksum error), count"
59	206281 10 0 0 0 0 1 0 0 0 0
vector 60 GradysNetwork.sensors[6].wlan[0].mac.dcf frameSequenceActive:vector ETV
attr autoWarmupFilter false
attr interpolationmode sample-hold
attr recordingmode vector
attr source warmup(count(frameSequenceStarted)-count(frameSequenceFinished))
attr title "frame sequence active"
60	206291 376 0 9427 0 10.003511411381 16 0 1 7 7
60	1236947 223 10808 13474 10.007603063915 10.257394032463 8 0 1 4 4
60	1628497 56 14729 14792 11.000621158039 11.000730158039 2 0 1 1 1
60	1782264 725 16072 26542 11.004361920916 13.004038442527 26 0 1 13 13
60	3347908 1393 26716 43334 13.13593894171 17.252012138875 50 0 1 25 25
vector 61 GradysNetwork.sensors[6].wlan[0].mac.dcf.channelAccess.inProgressFrames queueLength:vector ETV
attr autoWarmupFilter false
attr interpolationmode sample-hold
attr recordingmode vector
attr source "warmup(count(packetEnqueued) - count(packetDequeued))"
attr title "queue length"
61	206667 376 0 9427 0 10.003511411381 16 0 2 9 11
61	1237170 223 10808 13474 10.007603063915 10.257394032463 8 0 2 6 8
61	1628553 56 14729 14729 11.000621158039 11.000621158039 2 1 2 3 5
61	1782989 557 16166 26542 11.004460647655 13.004038442527 20 0 2 18 26
61	3349301 1169 26716 43334 13.13593894171 17.252012138875 42 0 2 39 57
vector 62 GradysNetwork.sensors[6].wlan[0].mac.dcf.channelAccess.contention backoffActive:vector ETV
attr autoWarmupFilter false
attr interpolationmode sample-hold
attr recordingmode vector
attr source warmup(count(backoffStarted)-count(backoffStopped))
attr title "backoff active"
62	207043 2005 0 10730 0 10.007268671741 76 0 1 37 37
62	1237393 1955 10801 13378 10.007313063915 10.257295246328 70 0 1 35 35
62	1628609 336 14473 14797 11.000054298342 11.000989307796 12 0 1 6 6
62	1783546 6920 14812 26459 11.001043307796 13.003939994586 248 0 1 124 124
62	3350470 9925 26714 43259 13.13593894171 17.251913824619 356 0 1 178 178
vector 63 GradysNetwork.sensors[6].udp passedUpPk:vector(count) ETV
attr interpolationmode none
attr recordingmode vector(count)
attr source packetSentToUpper
attr title "packets passed up, count"
63	209048 963 0 8162 0 10.000054337793 37 0 36 666 16206
63	1239348 29 11267 11267 10.251059140473 10.251059140473 1 37 37 37 1369
63	1628945 29 14462 14462 11.000054298342 11.000054298342 1 38 38 38 1444
63	1790466 116 17340 24744 11.251059100829 13.000054224109 4 39 42 162 6566
63	3360395 259 27050 42848 13.251059025126 17.251058904298 9 43 51 423 19941
vector 64 GradysNetwork.sensors[6].udp droppedPkWrongPort:vector(count) ETV
attr interpolationmode none
attr recordingmode vector(count)
attr source packetDropReasonIsNoPortFound(packetDropped)
attr title "packets dropped (wrong port), count"
64	210011 10 0 0 0 0 1 0 0 0 0
vector 65 GradysNetwork.sensors[6].udp droppedPkBadChecksum:vector(count) ETV
attr interpolationmode none
attr recordingmode vector(count)
attr source packetDropReasonIsIncorrectlyReceived(packetDropped)
attr title "packets dropped (checksum error), count"
65	210021 10 0 0 0 0 1 0 0 0 0
vector 66 GradysNetwork.sensors[7].wlan[0].mac.dcf frameSequenceActive:vector ETV
attr autoWarmupFilter false
attr interpolationmode sample-hold
attr recordingmode vector
attr source warmup(count(frameSequenceStarted)-count(frameSequenceFinished))
attr title "frame sequence active"
66	210031 595 0 8632 0 10.001103961463 24 0 1 11 11
66	1239377 167 11586 12838 10.251834516445 10.25496141239 6 0 1 3 3
66	1628974 56 14187 14278 10.872321195042 10.872419775814 2 0 1 1 1
66	1790582 893 15202 26140 11.001903476439 13.002764402028 32 0 1 16 16
66	3360654 783 27870 43958 13.252824148779 17.253422551086 28 0 1 14 14
vector 67 GradysNetwork.sensors[7].wlan[0].mac.dcf.channelAccess.inProgressFrames queueLength:vector ETV
attr autoWarmupFilter false
attr interpolationmode sample-hold
attr recordingmode vector
attr source "warmup(count(packetEnqueued) - count(packetDequeued))"
attr title "queue length"
67	210626 595 0 8632 0 10.001103961463 24 0 2 15 19
67	1239544 111 11586 12838 10.251834516445 10.25496141239 4 0 2 4 6
67	1629030 56 14187 14278 10.872321195042 10.872419775814 2 0 1 1 1
67	1791475 614 15202 26140 11.001903476439 13.002764402028 22 0 2 21 31
67	3361437 671 27870 43958 13.252824148779 17.253422551086 24 0 2 22 32
vector 68 GradysNetwork.sensors[7].wlan[0].mac.dcf.channelAccess.contention backoffActive:vector ETV
attr autoWarmupFilter false
attr interpolationmode sample-hold
attr recordingmode vector
attr source warmup(count(backoffStarted)-count(backoffStopped))
attr title "backoff active"
68	211221 1586 0 8542 0 10.001005459105 62 0 1 30 30
68	1239655 1447 11205 12746 10.25105904244 10.254862821879 52 0 1 26 26
68	1629086 444 14185 14801 10.872321195042 11.000989462408 16 0 1 8 8
68	1792089 6924 14820 26050 11.001043462408 13.00266590846 248 0 1 124 124
68	3362108 7376 27078 43868 13.251059025397 17.253324076827 264 0 1 132 132
vector 69 GradysNetwork.sensors[7].udp passedUpPk:vector(count) ETV
attr interpolationmode none
attr recordingmode vector(count)
attr source packetSentToUpper
attr title "packets passed up, count"
69	212807 1179 0 8099 0 10.000054251184 45 0 44 990 29370
69	1241102 28 11194 11194 10.25105904244 10.25105904244 1 45 45 45 2025
69	1629530 28 14425 14425 11.00005424742 11.00005424742 1 46 46 46 2116
69	1799013 116 17306 24795 11.251059034887 13.000054246778 4 47 50 194 9414
69	3369484 144 27067 42916 13.251059025397 17.25105898433 5 51 55 265 14055
vector 70 GradysNetwork.sensors[7].udp droppedPkWrongPort:vector(count) ETV
attr interpolationmode none
attr recordingmode vector(count)
attr source packetDropReasonIsNoPortFound(packetDropped)
attr title "packets dropped (wrong port), count"
70	213986 10 0 0 0 0 1 0 0 0 0
vector 71 GradysNetwork.sensors[7].udp droppedPkBadChecksum:vector(count) ETV
attr interpolationmode none
attr recordingmode vector(count)
attr source packetDropReasonIsIncorrectlyReceived(packetDropped)
attr title "packets dropped (checksum error), count"
71	213996 10 0 0 0 0 1 0 0 0 0
vector 72 GradysNetwork.groundStation.wlan[0].mac.dcf frameSequenceActive:vector ETV
attr autoWarmupFilter false
attr interpolationmode sample-hold
attr recordingmode vector
attr source warmup(count(frameSequenceStarted)-count(frameSequenceFinished))
attr title "frame sequence active"
72	214006 420 0 8219 0 10.000274281268 24 0 1 11 11
72	1241130 56 11603 11645 10.251874555845 10.251924555845 2 0 1 1 1
72	1629558 56 14712 14745 11.000581173499 11.000631173499 2 0 1 1 1
72	1799129 222 17601 25401 11.25162209104 13.001276988413 8 0 1 4 4
72	3369628 1576 27621 42466 13.252311086076 17.036937 62 0 1 31 31
vector 73 GradysNetwork.groundStation.wlan[0].mac.dcf.channelAccess.inProgressFrames queueLength:vector ETV
attr autoWarmupFilter false
attr interpolationmode sample-hold
attr recordingmode vector
attr source "warmup(count(packetEnqueued) - count(packetDequeued))"
attr title "queue length"
73	214426 420 0 8219 0 10.000274281268 24 0 1 11 11
73	1241186 56 11603 11645 10.251874555845 10.251924555845 2 0 1 1 1
73	1629614 56 14712 14745 11.000581173499 11.000631173499 2 0 1 1 1
73	1799351 222 17601 25401 11.25162209104 13.001276988413 8 0 1 4 4
73	3371204 607 27621 42466 13.252311086076 17.036937 24 0 2 18 24
vector 74 GradysNetwork.groundStation.wlan[0].mac.dcf.channelAccess.contention backoffActive:vector ETV
attr autoWarmupFilter false
attr interpolationmode sample-hold
attr recordingmode vector
attr source warmup(count(backoffStarted)-count(backoffStopped))
attr title "backoff active"
74	214846 356 0 8185 0 10.000224281268 24 0 1 11 11
74	1241242 223 11144 11602 10.25105897217 10.251874555845 8 0 1 4 4
74	1629670 168 14475 14711 11.000054313772 11.000581173499 6 0 1 3 3
74	1799573 1058 17254 25371 11.251059004217 13.001226988413 38 0 1 19 19
74	3371811 5371 27117 42427 13.25105906911 17.036828 200 0 1 100 100
vector 75 GradysNetwork.groundStation.udp passedUpPk:vector(count) ETV
attr interpolationmode none
attr recordingmode vector(count)
attr source packetSentToUpper
attr title "packets passed up, count"
75	215202 663 0 8135 0 10.000054281268 30 0 29 435 8555
75	1241465 28 11152 11152 10.25105897217 10.25105897217 1 30 30 30 900
75	1629838 29 14483 14483 11.000054313772 11.000054313772 1 31 31 31 961
75	1800631 115 17262 24851 11.251059004217 13.000054379225 4 32 35 134 4494
75	3377182 85 27125 35686 13.25105906911 15.251059134622 3 36 38 111 4109
vector 76 GradysNetwork.groundStation.udp droppedPkWrongPort:vector(count) ETV
attr interpolationmode none
attr recordingmode vector(count)
attr source packetDropReasonIsNoPortFound(packetDropped)
attr title "packets dropped (wrong port), count"
76	215865 10 0 0 0 0 1 0 0 0 0
vector 77 GradysNetwork.groundStation.udp droppedPkBadChecksum:vector(count) ETV
attr interpolationmode none
attr recordingmode vector(count)
attr source packetDropReasonIsIncorrectlyReceived(packetDropped)
attr title "packets dropped (checksum error), count"
77	215875 10 0 0 0 0 1 0 0 0 0
vector 78 GradysNetwork.farm.wlan[0].mac.dcf frameSequenceActive:vector ETV
attr autoWarmupFilter false
attr interpolationmode sample-hold
attr recordingmode vector
attr source warmup(count(frameSequenceStarted)-count(frameSequenceFinished))
attr title "frame sequence active"
78	215885 20 0 0 0 0 2 0 0 0 0
vector 79 GradysNetwork.farm.wlan[0].mac.dcf.channelAccess.inProgressFrames queueLength:vector ETV
attr autoWarmupFilter false
attr interpolationmode sample-hold
attr recordingmode vector
attr source "warmup(count(packetEnqueued) - count(packetDequeued))"
attr title "queue length"
79	215905 20 0 0 0 0 2 0 0 0 0
vector 80 GradysNetwork.farm.wlan[0].mac.dcf.channelAccess.contention backoffActive:vector ETV
attr autoWarmupFilter false
attr interpolationmode sample-hold
attr recordingmode vector
attr source warmup(count(backoffStarted)-count(backoffStopped))
attr title "backoff active"
80	215925 20 0 0 0 0 2 0 0 0 0
vector 81 GradysNetwork.farm.udp passedUpPk:vector(count) ETV
attr interpolationmode none
attr recordingmode vector(count)
attr source packetSentToUpper
attr title "packets passed up, count"
81	215945 10 0 0 0 0 1 0 0 0 0
vector 82 GradysNetwork.farm.udp droppedPkWrongPort:vector(count) ETV
attr interpolationmode none
attr recordingmode vector(count)
attr source packetDropReasonIsNoPortFound(packetDropped)
attr title "packets dropped (wrong port), count"
82	215955 10 0 0 0 0 1 0 0 0 0
vector 83 GradysNetwork.farm.udp droppedPkBadChecksum:vector(count) ETV
attr interpolationmode none
attr recordingmode vector(count)
attr source packetDropReasonIsIncorrectlyReceived(packetDropped)
attr title "packets dropped (checksum error), count"
83	215965 10 0 0 0 0 1 0 0 0 0
vector 84 GradysNetwork.sensors[0].energyStorage powerConsumption:vector ETV
attr interpolationmode sample-hold
attr recordingmode vector
attr source powerConsumptionChanged
attr title "Power consumption"
attr unit W
84	215975 13160 0 10727 0 10.007268637196 454 0 0.1 3.112 0.153384
84	1241493 4492 10760 13818 10.007278970499 10.259979784955 146 0 0.1 0.961 0.035347
84	1629867 1178 13852 14799 10.260013784955 11.000989409215 38 0 0.1 0.258 0.011276
84	1800746 17767 14816 26620 11.001043409215 13.044666629901 574 0 0.1 3.823 0.150391
84	3377267 27288 26653 45049 13.044677005484 17.808467646899 883 0 0.1 5.8999999999999 0.24979
vector 85 GradysNetwork.sensors[1].energyStorage powerConsumption:vector ETV
attr interpolationmode sample-hold
attr recordingmode vector
attr source powerConsumptionChanged
attr title "Power consumption"
attr unit W
85	229135 12546 0 10725 0 10.007268600532 433 0 0.1 2.974 0.143198
85	1245985 4770 10761 13819 10.007278973714 10.259979795553 154 0 0.1 1.062 0.045284
85	1631045 1387 13854 14810 10.260013795553 11.001043232921 45 0 0.1 0.356 0.021192
85	1818513 17649 14811 26607 11.001043232921 13.04461279762 570 0 0.1 3.817 0.150379
85	3404555 27976 26633 45046 13.04466679762 17.808467592102 908 0 0.1 6.1059999999999 0.269642
vector 86 GradysNetwork.sensors[2].energyStorage powerConsumption:vector ETV
attr interpolationmode sample-hold
attr recordingmode vector
attr source powerConsumptionChanged
attr title "Power consumption"
attr unit W
86	241681 11868 0 10740 0 10.007268741703 408 0 0.1 2.725 0.113805
86	1250755 5873 10763 13816 10.007278985709 10.259979781352 192 0 0.1 1.46 0.08496
86	1632432 879 13848 14802 10.260013781352 11.000989522233 28 0 0.01 0.158 0.001356
86	1836162 18383 14822 26615 11.001043522233 13.044666508308 595 0 0.1 4.1209999999999 0.180177
86	3432531 25165 26656 45055 13.044677054642 17.808467693922 812 0 0.1 5.1019999999999 0.170404
vector 87 GradysNetwork.sensors[3].energyStorage powerConsumption:vector ETV
attr interpolationmode sample-hold
attr recordingmode vector
attr source powerConsumptionChanged
attr title "Power consumption"
attr unit W
87	253549 12884 0 10744 0 10.00726880745 444 0 0.1 2.988 0.143036
87	1256628 5314 10758 13812 10.007278913103 10.259979669201 172 0 0.1 1.149 0.054833
87	1633311 903 13840 14805 10.260013669201 11.000989586512 29 0 0.01 0.163 0.001381
87	1854545 18242 14833 26622 11.001043586512 13.044666684349 590 0 0.1 4.036 0.170332
87	3457696 26692 26654 45023 13.044677024281 17.808433732622 860 0 0.1 5.5599999999999 0.19209
vector 88 GradysNetwork.sensors[4].energyStorage powerConsumption:vector ETV
attr interpolationmode sample-hold
attr recordingmode vector
attr source powerConsumptionChanged
attr title "Power consumption"
attr unit W
88	266433 12229 0 10746 0 10.007268810998 421 0 0.1 2.901 0.133537
88	1261942 4201 10767 13821 10.007279064307 10.259979857075 135 0 0.1 0.853 0.025381
88	1634214 875 13858 14804 10.260013857075 11.000989584969 28 0 0.01 0.158 0.001356
88	1872787 20420 14831 26616 11.001043584969 13.044666539796 662 0 0.1 4.8259999999999 0.249672
88	3484388 25895 26657 45053 13.044677073606 17.808467677058 835 0 0.1 5.2609999999999 0.180607
vector 89 GradysNetwork.sensors[5].energyStorage powerConsumption:vector ETV
attr interpolationmode sample-hold
attr recordingmode vector
attr source powerConsumptionChanged
attr title "Power consumption"
attr unit W
89	278662 13045 0 10724 0 10.007268525177 450 0 0.1 3.113 0.153401
89	1266143 4567 10759 13815 10.007278927646 10.259979749169 147 0 0.1 0.961 0.035347
89	1635089 1475 13846 14798 10.260013749169 11.000989308276 48 0 0.1 0.358 0.021196
89	1893207 17190 14814 26624 11.001043308276 13.044666724834 554 0 0.1 3.623 0.130551
89	3510283 27715 26650 45044 13.044676934973 17.808467588987 897 0 0.1 6.0039999999999 0.259718
vector 90 GradysNetwork.sensors[6].energyStorage powerConsumption:vector ETV
attr interpolationmode sample-hold
attr recordingmode vector
attr source powerConsumptionChanged
attr title "Power consumption"
attr unit W
90	291707 10312 0 10729 0 10.007268671741 357 0 0.1 2.16 0.09058
90	1270710 5550 10766 13822 10.007279063915 10.259979882333 180 0 0.1 1.25 0.06489
90	1636564 1114 13860 14797 10.260013882333 11.000989307796 36 0 0.1 0.256 0.011272
90	1910397 17762 14812 26610 11.001043307796 13.044612861332 573 0 0.1 3.818 0.150366
90	3537998 28319 26639 45042 13.044666861332 17.808467576477 918 0 0.1 6.1899999999999 0.27925
vector 91 GradysNetwork.sensors[7].energyStorage powerConsumption:vector ETV
attr interpolationmode sample-hold
attr recordingmode vector
attr source powerConsumptionChanged
attr title "Power consumption"
attr unit W
91	302019 12863 0 10731 0 10.00726868565 445 0 0.1 3.017 0.143489
91	1276260 4587 10762 13817 10.007278977561 10.259979784585 148 0 0.1 0.96 0.03533
91	1637678 1172 13850 14801 10.260013784585 11.000989462408 38 0 0.1 0.258 0.011276
91	1928159 18241 14820 26618 11.001043462408 13.04466657513 590 0 0.1 4.1149999999999 0.180165
91	3566317 25230 26655 45051 13.044677028345 17.808467654851 813 0 0.1 5.1069999999999 0.170429
vector 92 GradysNetwork.quads[0].wlan[0].radio radioMode:vector ETV
attr interpolationmode sample-hold
attr recordingmode vector
attr source radioModeChanged
attr title "Radio mode"
92	314882 1032 0 10619 0 10.007080056218 49 0 3 117 303
92	1280847 558 10754 13158 10.007278726412 10.25601678653 20 2 3 50 130
92	1638850 93 14325 14679 11 11.000450859713 4 2 3 10 26
92	1946400 2752 15147 26526 11.001759229024 13.004038218558 100 2 3 250 650
92	3591547 2832 26646 44534 13.044676781475 17.255172961989 104 2 3 260 676
vector 93 GradysNetwork.quads[0].wlan[0].radio radioChannel:vector ETV
attr interpolationmode sample-hold
attr recordingmode vector
attr source radioChannelChanged
attr title "Radio channel"
93	315914 10 0 0 0 0 1 0 0 0 0
vector 94 GradysNetwork.quads[1].wlan[0].radio radioMode:vector ETV
attr interpolationmode sample-hold
attr recordingmode vector
attr source radioModeChanged
attr title "Radio mode"
94	315924 1136 0 10189 0 10.005842200448 45 0 3 107 277
94	1281405 748 11096 13808 10.251004747152 10.259979489372 27 2 3 68 178
94	1638943 248 13832 14580 10.260013489372 11.00024242986 9 2 3 22 56
94	1949152 2504 14841 25921 11.001053523252 13.002427170151 90 2 3 225 585
94	3594379 5858 26950 45032 13.251004747152 17.808467428189 210 2 3 525 1365
vector 95 GradysNetwork.quads[1].wlan[0].radio radioChannel:vector ETV
attr interpolationmode sample-hold
attr recordingmode vector
attr source radioChannelChanged
attr title "Radio channel"
95	317060 10 0 0 0 0 1 0 0 0 0
vector 96 GradysNetwork.quads[2].wlan[0].radio radioMode:vector ETV
attr interpolationmode sample-hold
attr recordingmode vector
attr source radioModeChanged
attr title "Radio mode"
96	317070 30 0 0 0 0 3 0 2 2 4
vector 97 GradysNetwork.quads[2].wlan[0].radio radioChannel:vector ETV
attr interpolationmode sample-hold
attr recordingmode vector
attr source radioChannelChanged
attr title "Radio channel"
97	317100 10 0 0 0 0 1 0 0 0 0
vector 98 GradysNetwork.quads[3].wlan[0].radio radioMode:vector ETV
attr interpolationmode sample-hold
attr recordingmode vector
attr source radioModeChanged
attr title "Radio mode"
98	317110 30 0 0 0 0 3 0 2 2 4
vector 99 GradysNetwork.quads[3].wlan[0].radio radioChannel:vector ETV
attr interpolationmode sample-hold
attr recordingmode vector
attr source radioChannelChanged
attr title "Radio channel"
99	317140 10 0 0 0 0 1 0 0 0 0
vector 100 GradysNetwork.sensors[0].wlan[0].radio radioMode:vector ETV
attr interpolationmode sample-hold
attr recordingmode vector
attr source radioModeChanged
attr title "Radio mode"
100	317150 797 0 9832 0 10.004696659495 31 0 3 72 186
100	1282153 168 11486 11832 10.25150602469 10.25272470486 6 2 3 15 39
100	1639191 58 14062 14078 10.653882567221 10.653936567221 2 2 3 5 13
100	1951656 750 14999 25968 11.00138639038 13.002551437537 26 2 3 65 169
100	3600237 1272 28157 44386 13.253469413116 17.254960437816 44 2 3 110 286
vector 101 GradysNetwork.sensors[0].wlan[0].radio.energyConsumer powerConsumption:vector ETV
attr interpolationmode sample-hold
attr recordingmode vector
attr source powerConsumptionChanged
attr title "Power consumption"
attr unit W
101	317947 13603 0 10727 0 10.007268637196 453 0 0.1 3.112 0.153384
101	1282321 4638 10760 13818 10.007278970499 10.259979784955 146 0 0.1 0.961 0.035347
101	1639249 1216 13852 14799 10.260013784955 11.000989409215 38 0 0.1 0.258 0.011276
101	1952406 18341 14816 26620 11.001043409215 13.044666629901 574 0 0.1 3.823 0.150391
101	3601509 28171 26653 45049 13.044677005484 17.808467646899 883 0 0.1 5.8999999999999 0.24979
vector 102 GradysNetwork.sensors[0].wlan[0].radio radioChannel:vector ETV
attr interpolationmode sample-hold
attr recordingmode vector
attr source radioChannelChanged
attr title "Radio channel"
102	331550 11 0 0 0 0 1 0 0 0 0
vector 103 GradysNetwork.sensors[1].wlan[0].radio radioMode:vector ETV
attr interpolationmode sample-hold
attr recordingmode vector
attr source radioModeChanged
attr title "Radio mode"
103	331561 743 0 10314 0 10.00646673136 29 0 3 67 173
103	1286959 232 11385 13512 10.251337540906 10.257577945634 8 2 3 20 52
103	1640465 87 13878 14795 10.262943795553 11.000989232921 3 2 3 8 22
103	1970747 779 14811 25766 11.001043232921 13.002214421159 27 2 3 67 173
103	3629680 1380 27449 44982 13.251894518004 17.808423264275 48 2 3 120 312
vector 104 GradysNetwork.sensors[1].wlan[0].radio.energyConsumer powerConsumption:vector ETV
attr interpolationmode sample-hold
attr recordingmode vector
attr source powerConsumptionChanged
attr title "Power consumption"
attr unit W
104	332304 12968 0 10725 0 10.007268600532 432 0 0.1 2.974 0.143198
104	1287191 4924 10761 13819 10.007278973714 10.259979795553 154 0 0.1 1.062 0.045284
104	1640552 1432 13854 14810 10.260013795553 11.001043232921 45 0 0.1 0.356 0.021192
104	1971526 18219 14811 26607 11.001043232921 13.04461279762 570 0 0.1 3.817 0.150379
104	3631060 28884 26633 45046 13.04466679762 17.808467592102 908 0 0.1 6.1059999999999 0.269642
vector 105 GradysNetwork.sensors[1].wlan[0].radio radioChannel:vector ETV
attr interpolationmode sample-hold
attr recordingmode vector
attr source radioChannelChanged
attr title "Radio channel"
105	345272 11 0 0 0 0 1 0 0 0 0
vector 106 GradysNetwork.sensors[2].wlan[0].radio radioMode:vector ETV
attr interpolationmode sample-hold
attr recordingmode vector
attr source radioModeChanged
attr title "Radio mode"
106	345283 577 0 9933 0 10.005325162902 23 0 3 52 134
106	1292115 458 11282 13777 10.25116903916 10.259969197392 16 2 3 40 104
106	1989745 922 14896 26615 11.001217813439 13.044666508308 32 2 3 80 208
106	3659944 808 27134 44584 13.251109038516 17.255317245245 28 2 3 70 182
vector 107 GradysNetwork.sensors[2].wlan[0].radio.energyConsumer powerConsumption:vector ETV
attr interpolationmode sample-hold
attr recordingmode vector
attr source powerConsumptionChanged
attr title "Power consumption"
attr unit W
107	345860 12265 0 10740 0 10.007268741703 407 0 0.1 2.725 0.113805
107	1292573 6065 10763 13816 10.007278985709 10.259979781352 192 0 0.1 1.46 0.08496
107	1641984 907 13848 14802 10.260013781352 11.000989522233 28 0 0.01 0.158 0.001356
107	1990667 18978 14822 26615 11.001043522233 13.044666508308 595 0 0.1 4.1209999999999 0.180177
107	3660752 25977 26656 45055 13.044677054642 17.808467693922 812 0 0.1 5.1019999999999 0.170404
vector 108 GradysNetwork.sensors[2].wlan[0].radio radioChannel:vector ETV
attr interpolationmode sample-hold
attr recordingmode vector
attr source radioChannelChanged
attr title "Radio channel"
108	358125 11 0 0 0 0 1 0 0 0 0
vector 109 GradysNetwork.sensors[3].wlan[0].radio radioMode:vector ETV
attr interpolationmode sample-hold
attr recordingmode vector
attr source radioModeChanged
attr title "Radio mode"
109	358136 751 0 10670 0 10.007124242904 29 0 3 67 173
109	1298638 290 10906 13575 10.008091588102 10.258636299225 10 2 3 25 65
109	2009645 864 15386 26270 11.00257040979 13.003196982919 30 2 3 75 195
109	3686729 924 26824 44084 13.150169928676 17.253954934018 32 2 3 80 208
vector 110 GradysNetwork.sensors[3].wlan[0].radio.energyConsumer powerConsumption:vector ETV
attr interpolationmode sample-hold
attr recordingmode vector
attr source powerConsumptionChanged
attr title "Power consumption"
attr unit W
110	358887 13317 0 10744 0 10.00726880745 443 0 0.1 2.988 0.143036
110	1298928 5486 10758 13812 10.007278913103 10.259979669201 172 0 0.1 1.149 0.054833
110	1642891 932 13840 14805 10.260013669201 11.000989586512 29 0 0.01 0.163 0.001381
110	2010509 18832 14833 26622 11.001043586512 13.044666684349 590 0 0.1 4.036 0.170332
110	3687653 27552 26654 45023 13.044677024281 17.808433732622 860 0 0.1 5.5599999999999 0.19209
vector 111 GradysNetwork.sensors[3].wlan[0].radio radioChannel:vector ETV
attr interpolationmode sample-hold
attr recordingmode vector
attr source radioChannelChanged
attr title "Radio channel"
111	372204 11 0 0 0 0 1 0 0 0 0
vector 112 GradysNetwork.sensors[4].wlan[0].radio radioMode:vector ETV
attr interpolationmode sample-hold
attr recordingmode vector
attr source radioModeChanged
attr title "Radio mode"
112	372215 687 0 9772 0 10.004404619525 27 0 3 62 160
112	1304414 116 11927 12246 10.252899368247 10.253538572958 4 2 3 10 26
112	2029341 1332 15309 26168 11.002112128915 13.003028448095 46 2 3 115 299
112	3715205 868 28073 43473 13.253201260944 17.252424722896 30 2 3 75 195
vector 113 GradysNetwork.sensors[4].wlan[0].radio.energyConsumer powerConsumption:vector ETV
attr interpolationmode sample-hold
attr recordingmode vector
attr source powerConsumptionChanged
attr title "Power consumption"
attr unit W
113	372902 12639 0 10746 0 10.007268810998 420 0 0.1 2.901 0.133537
113	1304530 4336 10767 13821 10.007279064307 10.259979857075 135 0 0.1 0.853 0.025381
113	1643823 903 13858 14804 10.260013857075 11.000989584969 28 0 0.01 0.158 0.001356
113	2030673 21082 14831 26616 11.001043584969 13.044666539796 662 0 0.1 4.8259999999999 0.249672
113	3716073 26730 26657 45053 13.044677073606 17.808467677058 835 0 0.1 5.2609999999999 0.180607
vector 114 GradysNetwork.sensors[4].wlan[0].radio radioChannel:vector ETV
attr interpolationmode sample-hold
attr recordingmode vector
attr source radioChannelChanged
attr title "Radio channel"
114	385541 11 0 0 0 0 1 0 0 0 0
vector 115 GradysNetwork.sensors[5].wlan[0].radio radioMode:vector ETV
attr interpolationmode sample-hold
attr recordingmode vector
attr source radioModeChanged
attr title "Radio mode"
115	385552 801 0 10724 0 10.007268525177 31 0 3 72 186
115	1308866 174 11743 12663 10.252342799793 10.254688266724 6 2 3 15 39
115	1644726 116 14511 14628 11.000144183842 11.000406675877 4 2 3 10 26
115	2051755 636 17475 25666 11.251277612619 13.001966081718 22 2 3 55 143
115	3742803 1332 27445 44859 13.251894482023 17.614056074893 46 2 3 115 299
vector 116 GradysNetwork.sensors[5].wlan[0].radio.energyConsumer powerConsumption:vector ETV
attr interpolationmode sample-hold
attr recordingmode vector
attr source powerConsumptionChanged
attr title "Power consumption"
attr unit W
116	386353 13484 0 10724 0 10.007268525177 449 0 0.1 3.113 0.153401
116	1309040 4714 10759 13815 10.007278927646 10.259979749169 147 0 0.1 0.961 0.035347
116	1644842 1523 13846 14798 10.260013749169 11.000989308276 48 0 0.1 0.358 0.021196
116	2052391 17744 14814 26624 11.001043308276 13.044666724834 554 0 0.1 3.623 0.130551
116	3744135 28612 26650 45044 13.044676934973 17.808467588987 897 0 0.1 6.0039999999999 0.259718
vector 117 GradysNetwork.sensors[5].wlan[0].radio radioChannel:vector ETV
attr interpolationmode sample-hold
attr recordingmode vector
attr source radioChannelChanged
attr title "Radio channel"
117	399837 11 0 0 0 0 1 0 0 0 0
vector 118 GradysNetwork.sensors[6].wlan[0].radio radioMode:vector ETV
attr interpolationmode sample-hold
attr recordingmode vector
attr source radioModeChanged
attr title "Radio mode"
118	399848 461 0 10474 0 10.006715316209 19 0 3 42 108
118	1313754 348 10809 13737 10.007603063915 10.259564872022 12 2 3 30 78
118	1646365 58 14730 14769 11.000621158039 11.000675158039 2 2 3 5 13
118	2070135 752 16073 26477 11.004361920916 13.003993994586 26 2 3 65 169
118	3772747 1440 26717 43277 13.13593894171 17.251967824619 50 2 3 125 325
vector 119 GradysNetwork.sensors[6].wlan[0].radio.energyConsumer powerConsumption:vector ETV
attr interpolationmode sample-hold
attr recordingmode vector
attr source powerConsumptionChanged
attr title "Power consumption"
attr unit W
119	400309 10658 0 10729 0 10.007268671741 356 0 0.1 2.16 0.09058
119	1314102 5730 10766 13822 10.007279063915 10.259979882333 180 0 0.1 1.25 0.06489
119	1646423 1150 13860 14797 10.260013882333 11.000989307796 36 0 0.1 0.256 0.011272
119	2070887 18335 14812 26610 11.001043307796 13.044612861332 573 0 0.1 3.818 0.150366
119	3774187 29237 26639 45042 13.044666861332 17.808467576477 918 0 0.1 6.1899999999999 0.27925
vector 120 GradysNetwork.sensors[6].wlan[0].radio radioChannel:vector ETV
attr interpolationmode sample-hold
attr recordingmode vector
attr source radioChannelChanged
attr title "Radio channel"
120	410967 11 0 0 0 0 1 0 0 0 0
vector 121 GradysNetwork.sensors[7].wlan[0].radio radioMode:vector ETV
attr interpolationmode sample-hold
attr recordingmode vector
attr source radioModeChanged
attr title "Radio mode"
121	410978 739 0 8560 0 10.001059459105 29 0 3 67 173
121	1319832 174 11587 12764 10.251834516445 10.254916821879 6 2 3 15 39
121	1647573 58 14188 14204 10.872321195042 10.872375195042 2 2 3 5 13
121	2089222 922 15203 26068 11.001903476439 13.00271990846 32 2 3 80 208
121	3803424 812 27871 43886 13.252824148779 17.253378076827 28 2 3 70 182
vector 122 GradysNetwork.sensors[7].wlan[0].radio.energyConsumer powerConsumption:vector ETV
attr interpolationmode sample-hold
attr recordingmode vector
attr source powerConsumptionChanged
attr title "Power consumption"
attr unit W
122	411717 13297 0 10731 0 10.00726868565 444 0 0.1 3.017 0.143489
122	1320006 4735 10762 13817 10.007278977561 10.259979784585 148 0 0.1 0.96 0.03533
122	1647631 1210 13850 14801 10.260013784585 11.000989462408 38 0 0.1 0.258 0.011276
122	2090144 18831 14820 26618 11.001043462408 13.04466657513 590 0 0.1 4.1149999999999 0.180165
122	3804236 26043 26655 45051 13.044677028345 17.808467654851 813 0 0.1 5.1069999999999 0.170429
vector 123 GradysNetwork.sensors[7].wlan[0].radio radioChannel:vector ETV
attr interpolationmode sample-hold
attr recordingmode vector
attr source radioChannelChanged
attr title "Radio channel"
123	425014 11 0 0 0 0 1 0 0 0 0
vector 124 GradysNetwork.groundStation.wlan[0].radio radioMode:vector ETV
attr interpolationmode sample-hold
attr recordingmode vector
attr source radioModeChanged
attr title "Radio mode"
124	425025 455 0 8221 0 10.000274281268 25 0 3 57 147
124	1324741 58 11604 11647 10.251874555845 10.251924555845 2 2 3 5 13
124	1648841 58 14713 14747 11.000581173499 11.000631173499 2 2 3 5 13
124	2108975 230 17602 25403 11.25162209104 13.001276988413 8 2 3 20 52
124	3830279 1754 27622 42446 13.252311086076 17.036882 66 2 3 165 429
vector 125 GradysNetwork.groundStation.wlan[0].radio radioChannel:vector ETV
attr interpolationmode sample-hold
attr recordingmode vector
attr source radioChannelChanged
attr title "Radio channel"
125	425480 11 0 0 0 0 1 0 0 0 0
vector 126 GradysNetwork.farm.wlan[0].radio radioMode:vector ETV
attr interpolationmode sample-hold
attr recordingmode vector
attr source radioModeChanged
attr title "Radio mode"
126	425491 33 0 0 0 0 3 0 2 2 4
vector 127 GradysNetwork.farm.wlan[0].radio radioChannel:vector ETV
attr interpolationmode sample-hold
attr recordingmode vector
attr source radioChannelChanged
attr title "Radio channel"
127	425524 11 0 0 0 0 1 0 0 0 0
vector 128 GradysNetwork.quads[0].wlan[0].radio receptionState:vector ETV
attr interpolationmode sample-hold
attr recordingmode vector
attr source receptionStateChanged
attr title "Radio reception state"
128	425535 7426 0 10733 0 10.007268726412 282 0 3 494 1184
128	1324799 3146 10754 13810 10.007278726412 10.259979556085 109 0 3 189 453
128	1648899 760 13836 14800 10.260013556085 11.000989459045 27 0 3 48 116
128	2109205 12130 14818 26606 11.001043459045 13.044612781475 421 0 3 693 1643
128	3832033 18313 26626 45036 13.044666781475 17.808467494902 637 0 3 1116 2694
vector 129 GradysNetwork.quads[0].wlan[0].mac.dcf.channelAccess.contention stateChanged:vector ETV
attr enum IDLE,DEFER,IFS_AND_BACKOFF
attr interpolationmode none
attr recordingmode vector
attr title "contention state changed"
attr type enum
129	432961 15216 0 10733 0 10.007268726412 594 0 2 186 334
129	1327945 6230 10754 13789 10.007278726412 10.259969457096 216 0 0 0 0
129	1649659 1582 13836 14800 10.260013556085 11.000989459045 58 0 2 4 8
129	2121335 24276 14818 26606 11.001043459045 13.044612781475 846 0 2 36 64
129	3850346 37392 26626 45036 13.044666781475 17.808467494902 1308 0 2 32 64
vector 130 GradysNetwork.quads[1].wlan[0].radio receptionState:vector ETV
attr interpolationmode sample-hold
attr recordingmode vector
attr source receptionStateChanged
attr title "Radio reception state"
130	448177 7431 0 10742 0 10.007268789786 276 0 3 487 1169
130	1334175 3141 10756 13808 10.007278793125 10.259979489372 109 0 3 177 417
130	1651241 775 13832 14803 10.260013489372 11.000989523252 27 0 3 42 98
130	2145611 12073 14824 26608 11.001043523252 13.044612799149 418 0 3 701 1671
130	3887738 18989 26635 45032 13.044666799149 17.808467428189 657 0 3 1001 2325
vector 131 GradysNetwork.quads[1].wlan[0].mac.dcf.channelAccess.contention stateChanged:vector ETV
attr enum IDLE,DEFER,IFS_AND_BACKOFF
attr interpolationmode none
attr recordingmode vector
attr title "contention state changed"
attr type enum
131	455608 14990 0 10743 0 10.007268789786 556 0 2 132 228
131	1337316 6454 10778 13808 10.007312793125 10.259979489372 224 0 2 136 228
131	1652016 1550 13832 14803 10.260013489372 11.000989523252 54 0 0 0 0
131	2157684 24496 14824 26608 11.001043523252 13.044612799149 848 0 2 8 16
131	3906727 38158 26635 45032 13.044666799149 17.808467428189 1320 0 2 24 48
vector 132 GradysNetwork.quads[2].wlan[0].radio receptionState:vector ETV
attr interpolationmode sample-hold
attr recordingmode vector
attr source receptionStateChanged
attr title "Radio reception state"
132	470598 7148 0 10748 0 10.007268854355 267 1 3 531 1309
132	1343770 2805 10757 13811 10.00727885986 10.259979556121 97 1 3 195 483
132	1653566 778 13838 14806 10.260013556121 11.00098958852 27 1 3 54 134
132	2182180 12110 14835 26609 11.00104358852 13.044612827543 419 1 3 835 2065
132	3944885 19055 26637 45038 13.044666827543 17.808467495116 660 1 3 1319 3277
vector 133 GradysNetwork.quads[2].wlan[0].mac.dcf.channelAccess.contention stateChanged:vector ETV
attr enum IDLE,DEFER,IFS_AND_BACKOFF
attr interpolationmode none
attr recordingmode vector
attr title "contention state changed"
attr type enum
133	477746 14782 0 10749 0 10.007268854355 550 0 0 0 0
133	1346575 5730 10783 13804 10.00731285986 10.259969530743 198 0 0 0 0
133	1654344 1560 13838 14806 10.260013556121 11.00098958852 54 0 0 0 0
133	2194290 24568 14835 26609 11.00104358852 13.044612827543 850 0 0 0 0
133	3963940 38902 26637 45038 13.044666827543 17.808467495116 1348 0 0 0 0
vector 134 GradysNetwork.quads[3].wlan[0].radio receptionState:vector ETV
attr interpolationmode sample-hold
attr recordingmode vector
attr source receptionStateChanged
attr title "Radio reception state"
134	492528 5916 0 10691 0 10.007124462184 218 1 3 430 1050
134	1352305 2393 10768 13820 10.00727910371 10.259979847208 83 1 3 166 412
134	1655904 491 13856 14759 10.260013847208 11.000631546454 17 1 3 33 81
134	2218858 6815 14855 26611 11.001053910438 13.044612865222 236 1 3 451 1065
134	4002842 4999 26641 44885 13.044666865222 17.614056499684 173 1 3 324 752
vector 135 GradysNetwork.quads[3].wlan[0].mac.dcf.channelAccess.contention stateChanged:vector ETV
attr enum IDLE,DEFER,IFS_AND_BACKOFF
attr interpolationmode none
attr recordingmode vector
attr title "contention state changed"
attr type enum
135	498444 12838 0 10691 0 10.007124462184 472 0 0 0 0
135	1354698 5186 10768 13800 10.00727910371 10.25996952102 180 0 0 0 0
135	1656395 1154 13856 14760 10.260013847208 11.000631546454 40 0 0 0 0
135	2225673 16340 14855 26611 11.001053910438 13.044612865222 566 0 0 0 0
135	4007841 16370 26641 44885 13.044666865222 17.614056499684 566 0 0 0 0
vector 136 GradysNetwork.sensors[0].wlan[0].radio receptionState:vector ETV
attr interpolationmode sample-hold
attr recordingmode vector
attr source receptionStateChanged
attr title "Radio reception state"
136	511282 7710 0 10727 0 10.007268637196 283 0 3 523 1277
136	1359884 3110 10760 13818 10.007278970499 10.259979784955 108 0 3 208 512
136	1657549 754 13852 14799 10.260013784955 11.000989409215 26 0 3 49 121
136	2242013 12070 14816 26620 11.001043409215 13.044666629901 418 0 3 796 1956
136	4024211 17534 26653 45049 13.044677005484 17.808467646899 607 0 3 1148 2830
vector 137 GradysNetwork.sensors[0].wlan[0].mac.dcf.channelAccess.contention stateChanged:vector ETV
attr enum IDLE,DEFER,IFS_AND_BACKOFF
attr interpolationmode none
attr recordingmode vector
attr title "contention state changed"
attr type enum
137	518992 16782 0 10728 0 10.007268637196 616 0 2 232 400
137	1362994 6332 10789 13783 10.007312970499 10.259969318985 220 0 2 54 94
137	1658303 1624 13852 14799 10.260013784955 11.000989409215 56 0 2 43 75
137	2254083 24318 14816 26621 11.001043409215 13.044666629901 842 0 2 493 837
137	4041745 36464 26684 45049 13.044711005484 17.808467646899 1262 0 2 958 1626
vector 138 GradysNetwork.sensors[1].wlan[0].radio receptionState:vector ETV
attr interpolationmode sample-hold
attr recordingmode vector
attr source receptionStateChanged
attr title "Radio reception state"
138	535774 7561 0 10725 0 10.007268600532 278 0 3 514 1256
138	1369326 3122 10761 13819 10.007278973714 10.259979795553 108 0 3 205 503
138	1659927 752 13854 14795 10.260013795553 11.000989232921 26 0 3 46 112
138	2278401 12045 14811 26607 11.001043232921 13.04461279762 417 0 3 795 1955
138	4078209 17543 26633 45046 13.04466679762 17.808467592102 608 0 3 1143 2813
vector 139 GradysNetwork.sensors[1].wlan[0].mac.dcf.channelAccess.contention stateChanged:vector ETV
attr enum IDLE,DEFER,IFS_AND_BACKOFF
attr interpolationmode none
attr recordingmode vector
attr title "contention state changed"
attr type enum
139	543335 16480 0 10726 0 10.007268600532 606 0 2 256 440
139	1372448 6482 10791 13791 10.007312973714 10.259969486704 224 0 2 269 453
139	1660679 1680 13854 14795 10.260013795553 11.000989232921 58 0 2 45 77
139	2290446 24266 14886 26607 11.001087813582 13.04461279762 840 0 2 558 938
139	4095752 36472 26633 45046 13.04466679762 17.808467592102 1264 0 2 792 1352
vector 140 GradysNetwork.sensors[2].wlan[0].radio receptionState:vector ETV
attr interpolationmode sample-hold
attr recordingmode vector
attr source receptionStateChanged
attr title "Radio reception state"
140	559815 7821 0 10740 0 10.007268741703 287 0 3 543 1329
140	1378930 3116 10763 13816 10.007278985709 10.259979781352 108 0 3 193 467
140	1662359 754 13848 14802 10.260013781352 11.000989522233 26 1 3 52 130
140	2314712 12065 14822 26615 11.001043522233 13.044666508308 418 0 3 787 1929
140	4132224 17538 26656 45055 13.044677054642 17.808467693922 607 0 3 1172 2902
vector 141 GradysNetwork.sensors[2].wlan[0].mac.dcf.channelAccess.contention stateChanged:vector ETV
attr enum IDLE,DEFER,IFS_AND_BACKOFF
attr interpolationmode none
attr recordingmode vector
attr title "contention state changed"
attr type enum
141	567636 16614 0 10741 0 10.007268741703 610 0 2 264 448
141	1382046 6518 10795 13761 10.007312985709 10.259915197392 226 0 2 180 308
141	1663113 1624 13848 14802 10.260013781352 11.000989522233 56 0 2 39 67
141	2326777 24192 14822 26599 11.001043522233 13.044612508308 838 0 2 695 1179
141	4149762 36638 26690 45055 13.044711054642 17.808467693922 1268 0 2 750 1270
vector 142 GradysNetwork.sensors[3].wlan[0].radio receptionState:vector ETV
attr interpolationmode sample-hold
attr recordingmode vector
attr source receptionStateChanged
attr title "Radio reception state"
142	584250 7571 0 10744 0 10.00726880745 279 0 3 516 1250
142	1388564 3124 10758 13812 10.007278913103 10.259979669201 108 0 3 196 464
142	1664737 775 13840 14805 10.260013669201 11.000989586512 27 1 3 54 134
142	2350969 12129 14833 26622 11.001043586512 13.044666684349 420 0 3 794 1946
142	4186400 19011 26654 45023 13.044677024281 17.808433732622 658 0 3 1260 3086
vector 143 GradysNetwork.sensors[3].wlan[0].mac.dcf.channelAccess.contention stateChanged:vector ETV
attr enum IDLE,DEFER,IFS_AND_BACKOFF
attr interpolationmode none
attr recordingmode vector
attr title "contention state changed"
attr type enum
143	591821 16176 0 10745 0 10.00726880745 596 0 2 401 677
143	1391688 6304 10785 13785 10.007312913103 10.259969373433 218 0 2 257 429
143	1665512 1604 13840 14805 10.260013669201 11.000989586512 56 0 2 37 61
143	2363098 25070 14833 26623 11.001043586512 13.044666684349 868 0 2 915 1539
143	4205411 39658 26686 45007 13.044711024281 17.808423617866 1372 0 2 668 1132
vector 144 GradysNetwork.sensors[4].wlan[0].radio receptionState:vector ETV
attr interpolationmode sample-hold
attr recordingmode vector
attr source receptionStateChanged
attr title "Radio reception state"
144	607997 7686 0 10746 0 10.007268810998 282 0 3 527 1291
144	1397992 3095 10767 13821 10.007279064307 10.259979857075 107 0 3 209 517
144	1667116 750 13858 14804 10.260013857075 11.000989584969 26 1 3 52 130
144	2388168 12084 14831 26616 11.001043584969 13.044666539796 418 0 3 766 1866
144	4245069 17888 26657 45053 13.044677073606 17.808467677058 619 0 3 1188 2926
vector 145 GradysNetwork.sensors[4].wlan[0].mac.dcf.channelAccess.contention stateChanged:vector ETV
attr enum IDLE,DEFER,IFS_AND_BACKOFF
attr interpolationmode none
attr recordingmode vector
attr title "contention state changed"
attr type enum
145	615683 16622 0 10747 0 10.007268810998 610 0 2 268 460
145	1401087 6300 10803 13781 10.007313064307 10.259969279015 218 0 2 106 178
145	1667866 1616 13858 14804 10.260013857075 11.000989584969 56 0 2 39 67
145	2400252 24760 14831 26617 11.001043584969 13.044666539796 856 0 2 705 1205
145	4262957 37460 26692 45053 13.044711073606 17.808467677058 1296 0 2 720 1224
vector 146 GradysNetwork.sensors[5].wlan[0].radio receptionState:vector ETV
attr interpolationmode sample-hold
attr recordingmode vector
attr source receptionStateChanged
attr title "Radio reception state"
146	632305 7716 0 10724 0 10.007268525177 284 0 3 525 1281
146	1407387 3130 10759 13815 10.007278927646 10.259979749169 108 0 3 208 512
146	1669482 752 13846 14798 10.260013749169 11.000989308276 26 0 3 46 112
146	2425012 12082 14814 26624 11.001043308276 13.044666724834 418 0 3 802 1974
146	4300417 17538 26650 45044 13.044676934973 17.808467588987 607 0 3 1145 2821
vector 147 GradysNetwork.sensors[5].wlan[0].mac.dcf.channelAccess.contention stateChanged:vector ETV
attr enum IDLE,DEFER,IFS_AND_BACKOFF
attr interpolationmode none
attr recordingmode vector
attr title "contention state changed"
attr type enum
147	640021 16686 0 10708 0 10.007214525177 614 0 2 234 402
147	1410517 6204 10787 13787 10.007312927646 10.259969413918 214 0 2 144 244
147	1670234 1618 13846 14798 10.260013749169 11.000989308276 56 0 2 8 16
147	2437094 24442 14814 26624 11.001043308276 13.044666724834 846 0 2 388 652
147	4317955 36326 26625 45044 13.044666724834 17.808467588987 1258 0 2 712 1216
vector 148 GradysNetwork.sensors[6].wlan[0].radio receptionState:vector ETV
attr interpolationmode sample-hold
attr recordingmode vector
attr source receptionStateChanged
attr title "Radio reception state"
148	656707 6009 0 10729 0 10.007268671741 220 0 3 411 1001
148	1416721 3123 10766 13822 10.007279063915 10.259979882333 108 0 3 196 470
148	1671852 750 13860 14797 10.260013882333 11.000989307796 26 0 3 49 121
148	2461536 12058 14812 26610 11.001043307796 13.044612861332 417 0 3 795 1955
148	4354281 17566 26639 45042 13.044666861332 17.808467576477 608 0 3 1135 2779
vector 149 GradysNetwork.sensors[6].wlan[0].mac.dcf.channelAccess.contention stateChanged:vector ETV
attr enum IDLE,DEFER,IFS_AND_BACKOFF
attr interpolationmode none
attr recordingmode vector
attr title "contention state changed"
attr type enum
149	662716 13798 0 10730 0 10.007268671741 506 0 2 205 353
149	1419844 6186 10801 13802 10.007313063915 10.259969522764 214 0 2 201 341
149	1672602 1678 13860 14797 10.260013882333 11.000989307796 58 0 2 33 57
149	2473594 24700 14812 26610 11.001043307796 13.044612861332 854 0 2 725 1221
149	4371847 36730 26639 45042 13.044666861332 17.808467576477 1272 0 2 1008 1720
vector 150 GradysNetwork.sensors[7].wlan[0].radio receptionState:vector ETV
attr interpolationmode sample-hold
attr recordingmode vector
attr source receptionStateChanged
attr title "Radio reception state"
150	676514 7719 0 10731 0 10.00726868565 284 0 3 528 1290
150	1426030 3120 10762 13817 10.007278977561 10.259979784585 108 0 3 208 512
150	1674280 748 13850 14801 10.260013784585 11.000989462408 26 0 3 49 121
150	2498294 12073 14820 26618 11.001043462408 13.04466657513 418 0 3 787 1929
150	4408577 17549 26655 45051 13.044677028345 17.808467654851 607 0 3 1172 2902
vector 151 GradysNetwork.sensors[7].wlan[0].mac.dcf.channelAccess.contention stateChanged:vector ETV
attr enum IDLE,DEFER,IFS_AND_BACKOFF
attr interpolationmode none
attr recordingmode vector
attr title "contention state changed"
attr type enum
151	684233 16692 0 10732 0 10.00726868565 614 0 2 160 280
151	1429150 6180 10793 13779 10.007312977561 10.259969264214 214 0 2 152 256
151	1675028 1606 13850 14801 10.260013784585 11.000989462408 56 0 2 43 75
151	2510367 24492 14820 26619 11.001043462408 13.04466657513 848 0 2 721 1217
151	4426126 36680 26688 45051 13.044711028345 17.808467654851 1268 0 2 762 1290
vector 152 GradysNetwork.groundStation.wlan[0].radio receptionState:vector ETV
attr interpolationmode sample-hold
attr recordingmode vector
attr source receptionStateChanged
attr title "Radio reception state"
[...]
attr source dataAge(packetReceived)
attr title "received packet lifetime"
attr unit s
639	1217401 42 8148 8148 10.000054337793 10.000054337793 1 10.000054337793 10.000054337793 10.000054337793 100.00108675881
639	1621825 43 11268 11268 10.251059140473 10.251059140473 1 10.251059140473 10.251059140473 10.251059140473 105.08421350148
639	1731449 43 14463 14463 11.000054298342 11.000054298342 1 11.000054298342 11.000054298342 11.000054298342 121.00119456647
639	3266652 172 17341 24745 11.251059100829 13.000054224109 4 11.251059100829 13.000054224109 48.502226647393 589.67749111472
639	5568018 383 27051 42849 13.251059025126 17.251058904298 9 13.251059025126 17.251058904298 138.25551143298 2138.980711826
vector 640 GradysNetwork.sensors[6].ipv4.arp arpRequestSent:vector(packetBytes) ETV
attr recordingmode vector(packetBytes)
attr source arpRequestSent
attr title "ARP request sent, packetBytes"
640	1217443 29 8155 8155 10.000054337793 10.000054337793 1 28 28 28 784
640	1621868 30 11275 11275 10.251059140473 10.251059140473 1 28 28 28 784
vector 641 GradysNetwork.quads[0].ipv4.arp arpReplySent:vector(packetBytes) ETV
attr recordingmode vector(packetBytes)
attr source arpReplySent
attr title "ARP replies sent, packetBytes"
641	1217472 202 8417 10256 10.000731207925 10.00612256444 7 28 28 196 5488
641	3266824 30 16050 16050 11.004151874778 11.004151874778 1 28 28 28 784
641	5568401 30 30739 30739 14.004101873019 14.004101873019 1 28 28 28 784
vector 642 GradysNetwork.quads[0].wlan[0].mac.dcf packetSentToPeerUnicast:vector(packetBytes) ETV
attr interpolationmode none
attr recordingmode vector(packetBytes)
attr source ieee80211Unicast(packetSentToPeer)
attr title "packets sent: unicast, packetBytes"
642	1217674 322 8455 10618 10.000831207925 10.007080056218 11 14 64 504 29456
642	1621898 299 10774 13157 10.007312726412 10.25601678653 10 14 14 140 1960
642	1731492 30 14678 14678 11.000450859713 11.000450859713 1 14 14 14 196
642	3266854 1435 15168 26525 11.001793229024 13.004038218558 48 14 64 722 13308
642	5568431 1438 26667 44533 13.044710781475 17.255172961989 48 14 64 872 25008
vector 643 GradysNetwork.quads[1].wlan[0].mac.dcf packetDrop:vector(packetBytes) ETV
attr interpolationmode none
attr recordingmode vector(packetBytes)
attr source packetDropped
attr title "packet drops, packetBytes"
643	1217996 677 8458 10743 10.000831274638 10.007268789786 23 14 71 957 56033
643	1622197 568 10779 13165 10.007312793125 10.256016853243 19 14 71 779 47329
643	1731522 60 14647 14683 11.000406921891 11.000450926426 2 14 71 85 5237
643	3268289 2845 15137 26530 11.001749257506 13.004038285271 95 14 71 4059 250235
643	5569869 2840 26636 44539 13.044666799149 17.255173028702 95 14 71 4152 257090
vector 644 GradysNetwork.quads[1].wlan[0].mac.dcf packetDropNotAddressedToUs:vector(packetBytes) ETV
attr interpolationmode none
attr recordingmode vector(packetBytes)
attr source packetDropReasonIsNotAddressedToUs(packetDropped)
attr title "packet drops: not addressed to us, packetBytes"
644	1218673 677 8458 10743 10.000831274638 10.007268789786 23 14 71 957 56033
644	1622765 568 10779 13165 10.007312793125 10.256016853243 19 14 71 779 47329
644	1731582 60 14647 14683 11.000406921891 11.000450926426 2 14 71 85 5237
644	3271134 2845 15137 26530 11.001749257506 13.004038285271 95 14 71 4059 250235
644	5572709 2751 26636 44539 13.044666799149 17.255173028702 92 14 71 3939 241967
vector 645 GradysNetwork.quads[1].wlan[0].mac packetDropNotAddressedToUs:vector(packetBytes) ETV
attr interpolationmode none
attr recordingmode vector(packetBytes)
attr source packetDropReasonIsNotAddressedToUs(packetDropped)
attr title "packet drops: not addressed to us, packetBytes"
645	1219350 677 8458 10743 10.000831274638 10.007268789786 23 14 71 957 56033
645	1623333 568 10779 13165 10.007312793125 10.256016853243 19 14 71 779 47329
645	1731642 60 14647 14683 11.000406921891 11.000450926426 2 14 71 85 5237
645	3273979 2845 15137 26530 11.001749257506 13.004038285271 95 14 71 4059 250235
645	5575460 2751 26636 44539 13.044666799149 17.255173028702 92 14 71 3939 241967
vector 646 GradysNetwork.quads[0].wlan[0].mac.dcf packetReceivedFromPeerUnicast:vector(packetBytes) ETV
attr interpolationmode none
attr recordingmode vector(packetBytes)
attr source ieee80211Unicast(packetReceivedFromPeer)
attr title "packets received: unicast, packetBytes"
646	1220027 353 8531 10734 10.000875710285 10.007268726412 12 14 71 453 26577
646	1623901 269 10837 13113 10.007657401405 10.25597278653 9 71 71 639 45369
646	1731702 30 14638 14638 11.000406859713 11.000406859713 1 71 71 71 5041
646	3276824 1435 15128 26483 11.001749229024 13.003994218558 48 14 71 3351 237123
646	5578211 1348 26627 44490 13.044666781475 17.255128961989 45 14 71 3138 222000
vector 647 GradysNetwork.sensors[5].wlan[0].mac.dcf packetSentToPeerWithRetry:vector(packetBytes) ETV
attr interpolationmode none
attr recordingmode vector(packetBytes)
attr source ieee80211Retry(packetSentToPeer)
attr title "packets sent: with retry, packetBytes"
647	1220380 29 8662 8662 10.001247911631 10.001247911631 1 71 71 71 5041
647	1624170 30 12047 12047 10.253201382226 10.253201382226 1 71 71 71 5041
647	3278259 60 18188 23833 11.253424334746 12.256441299394 2 71 71 142 10082
647	5579559 60 28857 34420 13.255222545642 15.001531451442 2 71 71 142 10082
vector 648 GradysNetwork.sensors[3].wlan[0].mac.dcf packetSentToPeerWithRetry:vector(packetBytes) ETV
attr interpolationmode none
attr recordingmode vector(packetBytes)
attr source ieee80211Retry(packetSentToPeer)
attr title "packets sent: with retry, packetBytes"
648	1220409 59 9128 10138 10.002512356435 10.005798023128 2 71 71 142 10082
648	1624200 60 13106 13574 10.255972595666 10.258636299225 2 71 71 142 10082
648	3278319 118 21487 24137 12.004513129219 12.257826992614 4 71 71 284 20164
648	5579619 89 33158 44083 14.25605639122 17.253954934018 3 71 71 213 15123
vector 649 GradysNetwork.sensors[6].wlan[0].mac.dcf packetSentToPeerBroadcast:vector(packetBytes) ETV
attr interpolationmode none
attr recordingmode vector(packetBytes)
attr source ieee80211Broadcast(packetSentToPeer)
attr title "packets sent: broadcast , packetBytes"
649	1220468 29 9427 9427 10.003511411381 10.003511411381 1 64 64 64 4096
649	1624260 30 12969 12969 10.255410094279 10.255410094279 1 64 64 64 4096
vector 650 GradysNetwork.sensors[2].wlan[0].mac.dcf packetReceivedFromPeerUnicast:vector(packetBytes) ETV
attr interpolationmode none
attr recordingmode vector(packetBytes)
attr source ieee80211Unicast(packetReceivedFromPeer)
attr title "packets received: unicast, packetBytes"
650	1220497 58 9667 10007 10.004220537902 10.00536968149 2 14 64 78 4292
650	1624290 119 11372 12939 10.251267558536 10.255229993121 4 14 64 106 4684
650	1731732 30 13849 13849 10.260013781352 10.260013781352 1 14 14 14 196
650	3278437 328 14988 26451 11.001316393811 13.003730043462 11 14 14 154 2156
650	5579708 389 26691 44660 13.044711054642 17.255361787784 13 14 14 182 2548
vector 651 GradysNetwork.sensors[2].wlan[0].mac.dcf packetSentToPeerUnicast:vector(packetBytes) ETV
attr interpolationmode none
attr recordingmode vector(packetBytes)
attr source ieee80211Unicast(packetSentToPeer)
attr title "packets sent: unicast, packetBytes"
651	1220555 58 9706 9932 10.004264537902 10.005325162902 2 14 71 85 5237
651	1624409 207 11297 13776 10.25122303916 10.259969197392 7 14 71 440 30442
651	3278765 477 14911 26614 11.001271813439 13.044666508308 16 71 71 1136 80656
651	5580097 418 27149 44583 13.251163038516 17.255317245245 14 71 71 994 70574
vector 652 GradysNetwork.sensors[0].wlan[0].mac.dcf packetSentToPeerWithRetry:vector(packetBytes) ETV
attr interpolationmode none
attr recordingmode vector(packetBytes)
attr source ieee80211Retry(packetSentToPeer)
attr title "packets sent: with retry, packetBytes"
652	1220613 29 9831 9831 10.004696659495 10.004696659495 1 71 71 71 5041
652	1624616 29 11831 11831 10.25272470486 10.25272470486 1 71 71 71 5041
652	3279242 60 17806 20385 11.252490643967 12.001959575255 2 71 71 142 10082
652	5580515 119 33363 44285 14.256733372949 17.254632003864 4 71 71 284 20164
vector 653 GradysNetwork.quads[0].wlan[0].mac.dcf packetReceivedFromPeerWithRetry:vector(packetBytes) ETV
attr interpolationmode none
attr recordingmode vector(packetBytes)
attr source ieee80211Retry(packetReceivedFromPeer)
attr title "packets received: with retry, packetBytes"
653	1220642 29 9846 9846 10.004696903609 10.004696903609 1 71 71 71 5041
653	1624645 89 12058 13113 10.253201579028 10.25597278653 3 71 71 213 15123
653	3279302 270 15929 26483 11.003887200704 13.003994218558 9 71 71 639 45369
653	5580634 240 27546 44490 13.252116698569 17.255128961989 8 71 71 568 40328
vector 654 GradysNetwork.sensors[6].wlan[0].mac.dcf packetReceivedFromPeerUnicast:vector(packetBytes) ETV
attr interpolationmode none
attr recordingmode vector(packetBytes)
attr source ieee80211Unicast(packetReceivedFromPeer)
attr title "packets received: unicast, packetBytes"
654	1220671 30 10437 10437 10.006671316209 10.006671316209 1 64 64 64 4096
654	1624734 149 10899 13706 10.007701738892 10.259520872022 5 14 64 170 8780
654	3279572 328 16166 26542 11.004460647655 13.004038442527 11 14 14 154 2156
654	5580874 628 26799 43334 13.136037380528 17.252012138875 21 14 14 294 4116
vector 655 GradysNetwork.sensors[6].wlan[0].mac.dcf packetSentToPeerUnicast:vector(packetBytes) ETV
attr interpolationmode none
attr recordingmode vector(packetBytes)
attr source ieee80211Unicast(packetSentToPeer)
attr title "packets sent: unicast, packetBytes"
655	1220701 2010 10473 10473 10.006715316209 10.006715316209 1 14 14 14 196
655	1624883 150 10824 13736 10.007657063915 10.259564872022 5 14 71 241 15515
655	1731762 30 14768 14768 11.000675158039 11.000675158039 1 71 71 71 5041
655	3279900 389 16088 26476 11.004415920916 13.003993994586 13 71 71 923 65533
655	5581502 745 26732 43276 13.13599294171 17.251967824619 25 71 71 1775 126025
vector 656 GradysNetwork.sensors[7].wlan[0].mac.dcf packetSentToPeerWithRetry:vector(packetBytes) ETV
attr interpolationmode none
attr recordingmode vector(packetBytes)
attr source ieee80211Retry(packetSentToPeer)
attr title "packets sent: with retry, packetBytes"
656	1625033 30 12559 12559 10.254379819929 10.254379819929 1 71 71 71 5041
656	3280289 149 18688 21654 11.254487032622 12.00526973168 5 71 71 355 25205
656	5582247 60 28658 40677 13.254825503987 16.254679698139 2 71 71 142 10082
vector 657 GradysNetwork.sensors[1].wlan[0].mac.dcf packetSentToPeerWithRetry:vector(packetBytes) ETV
attr interpolationmode none
attr recordingmode vector(packetBytes)
attr source ieee80211Retry(packetSentToPeer)
attr title "packets sent: with retry, packetBytes"
657	1625063 60 13042 13511 10.255534185952 10.257577945634 2 71 71 142 10082
657	1731792 1223 13896 13896 10.262997795553 10.262997795553 1 71 71 71 5041
657	3280438 89 15920 23733 11.00388697464 12.256092811453 3 71 71 213 15123
657	5582307 90 27537 44485 13.252116518004 17.255128843685 3 71 71 213 15123
vector 658 GradysNetwork.quads[1].wlan[0].mac.dcf packetSentToPeerWithRetry:vector(packetBytes) ETV
attr interpolationmode none
attr recordingmode vector(packetBytes)
attr source ieee80211Retry(packetSentToPeer)
attr title "packets sent: with retry, packetBytes"
658	1625123 59 13293 13679 10.256940853243 10.25952047904 2 64 64 128 8192
vector 659 GradysNetwork.sensors[6].wlan[0].mac.dcf packetReceivedFromPeerWithRetry:vector(packetBytes) ETV
attr interpolationmode none
attr recordingmode vector(packetBytes)
attr source ieee80211Retry(packetReceivedFromPeer)
attr title "packets received: with retry, packetBytes"
659	1625182 60 13320 13706 10.256941246328 10.259520872022 2 64 64 128 8192
vector 660 GradysNetwork.sensors[2].wlan[0].mac.dcf packetSentToPeerWithRetry:vector(packetBytes) ETV
attr interpolationmode none
attr recordingmode vector(packetBytes)
attr source ieee80211Retry(packetSentToPeer)
attr title "packets sent: with retry, packetBytes"
660	1625242 60 13509 13776 10.257577931385 10.259969197392 2 71 71 142 10082
660	3280527 119 18487 23550 11.25404984019 12.255025865996 4 71 71 284 20164
660	5582397 60 32670 44185 14.254354124832 17.254183498603 2 71 71 142 10082
vector 661 GradysNetwork.sensors[6].wlan[0].mac.dcf.recipientMacDataService packetDropDuplicateDetected:vector(packetBytes) ETV
attr interpolationmode none
attr recordingmode vector(packetBytes)
attr source packetDropReasonIsDuplicateDetected(packetDropped)
attr title "packet drops: duplicate detected, packetBytes"
661	1625302 30 13706 13706 10.259520872022 10.259520872022 1 64 64 64 4096
vector 662 GradysNetwork.sensors[6].wlan[0].mac packetDropDuplicateDetected:vector(packetBytes) ETV
attr interpolationmode none
attr recordingmode vector(packetBytes)
attr source packetDropReasonIsDuplicateDetected(packetDropped)
attr title "packet drops: duplicate detected, packetBytes"
662	1625332 30 13706 13706 10.259520872022 10.259520872022 1 64 64 64 4096
vector 663 GradysNetwork.sensors[6].wlan[0].mac.dcf packetSentToPeerWithRetry:vector(packetBytes) ETV
attr interpolationmode none
attr recordingmode vector(packetBytes)
attr source ieee80211Retry(packetSentToPeer)
attr title "packets sent: with retry, packetBytes"
663	3280646 90 16088 26476 11.004415920916 13.003993994586 3 71 71 213 15123
663	5582457 120 30436 42010 14.002139661469 17.002362001463 4 71 71 284 20164
vector 664 GradysNetwork.quads[0].wlan[0].mac.dcf.recipientMacDataService packetDropDuplicateDetected:vector(packetBytes) ETV
attr interpolationmode none
attr recordingmode vector(packetBytes)
attr source packetDropReasonIsDuplicateDetected(packetDropped)
attr title "packet drops: duplicate detected, packetBytes"
664	3280736 30 18703 18703 11.254487279445 11.254487279445 1 71 71 71 5041
vector 665 GradysNetwork.quads[0].wlan[0].mac packetDropDuplicateDetected:vector(packetBytes) ETV
attr interpolationmode none
attr recordingmode vector(packetBytes)
attr source packetDropReasonIsDuplicateDetected(packetDropped)
attr title "packet drops: duplicate detected, packetBytes"
665	3280766 30 18703 18703 11.254487279445 11.254487279445 1 71 71 71 5041
vector 666 GradysNetwork.groundStation.ipv4.ip packetDropAddressResolutionFailed:vector(packetBytes) ETV
attr interpolationmode none
attr recordingmode vector(packetBytes)
attr source packetDropReasonIsAddressResolutionFailed(packetDropped)
attr title "packet drop: address resolution failed, packetBytes"
666	3280796 2868 22158 24825 12.251058940567 13.000054281268 9 35 35 315 11025
vector 667 GradysNetwork.groundStation.wlan[0].mac.dcf packetReceivedFromPeerUnicast:vector(packetBytes) ETV
attr interpolationmode none
attr recordingmode vector(packetBytes)
attr source ieee80211Unicast(packetReceivedFromPeer)
attr title "packets received: unicast, packetBytes"
667	5582577 327 27710 38867 13.252501730082 16.002281649111 11 14 64 254 9956
vector 668 GradysNetwork.groundStation.wlan[0].mac.dcf packetSentToPeerUnicast:vector(packetBytes) ETV
attr interpolationmode none
attr recordingmode vector(packetBytes)
attr source ieee80211Unicast(packetSentToPeer)
attr title "packets sent: unicast, packetBytes"
668	5582904 864 27749 42444 13.252545730082 17.036882 31 14 71 2087 146581
vector 669 GradysNetwork.groundStation.wlan[0].mac.dcf packetSentToPeerWithRetry:vector(packetBytes) ETV
attr interpolationmode none
attr recordingmode vector(packetBytes)
attr source ieee80211Retry(packetSentToPeer)
attr title "packets sent: with retry, packetBytes"
669	5583768 531 28289 42444 13.253712024102 17.036882 19 71 71 1349 95779
vector 670 GradysNetwork.quads[1].wlan[0].mac.dcf.recipientMacDataService packetDropDuplicateDetected:vector(packetBytes) ETV
attr interpolationmode none
attr recordingmode vector(packetBytes)
attr source packetDropReasonIsDuplicateDetected(packetDropped)
attr title "packet drops: duplicate detected, packetBytes"
670	5584299 89 30643 34785 14.00349711423 15.002400784941 3 71 71 213 15123
vector 671 GradysNetwork.quads[1].wlan[0].mac packetDropDuplicateDetected:vector(packetBytes) ETV
attr interpolationmode none
attr recordingmode vector(packetBytes)
attr source packetDropReasonIsDuplicateDetected(packetDropped)
attr title "packet drops: duplicate detected, packetBytes"
671	5584388 89 30643 34785 14.00349711423 15.002400784941 3 71 71 213 15123
vector 672 GradysNetwork.quads[0].wlan[0].mac.dcf packetSentToPeerWithRetry:vector(packetBytes) ETV
attr interpolationmode none
attr recordingmode vector(packetBytes)
attr source ieee80211Retry(packetSentToPeer)
attr title "packets sent: with retry, packetBytes"
672	5584477 90 30824 30938 14.004425873019 14.006533873019 3 64 64 192 12288
vector 673 GradysNetwork.groundStation.wlan[0].mac.dcf packetReceivedFromPeerWithRetry:vector(packetBytes) ETV
attr interpolationmode none
attr recordingmode vector(packetBytes)
attr source ieee80211Retry(packetReceivedFromPeer)
attr title "packets received: with retry, packetBytes"
673	5584567 30 30962 30962 14.006534285335 14.006534285335 1 64 64 64 4096
vector 674 GradysNetwork.groundStation.wlan[0].mac.dcf packetDropRetryLimitReached:vector(packetBytes) ETV
attr interpolationmode none
attr recordingmode vector(packetBytes)
attr source packetDropReasonIsRetryLimitReached(packetDropped)
attr title "packet drops: retry limit reached, packetBytes"
674	5584597 24 42466 42466 17.036937 17.036937 1 71 71 71 5041
vector 675 GradysNetwork.groundStation.wlan[0].mac packetDropRetryLimitReached:vector(packetBytes) ETV
attr interpolationmode none
attr recordingmode vector(packetBytes)
attr source packetDropReasonIsRetryLimitReached(packetDropped)
attr title "packet drops: retry limit reached, packetBytes"
675	5584621 1863 42466 42466 17.036937 17.036937 1 71 71 71 5041
vector 676 GradysNetwork.quads[2].wlan[0].mac.dcf.channelAccess.pendingQueue outgoingDataRate:vector ETV
attr interpolationmode linear
attr recordingmode vector
attr source throughput(packetPulled)
attr title "outgoing datarate"
attr unit bps
676	5591170 3100 45056 45056 0.1 17.808467693922 179 0 0 0 0
vector 677 GradysNetwork.quads[2].wlan[0].mac.dcf.channelAccess.pendingQueue incomingDataRate:vector ETV
attr interpolationmode linear
attr recordingmode vector
attr source throughput(packetPushStarted)
attr title "incoming datarate"
attr unit bps
677	5594270 3100 45056 45056 0.1 17.808467693922 179 0 0 0 0
vector 678 GradysNetwork.quads[2].app[0] throughput:vector ETV
attr recordingmode vector
attr source throughput(packetReceived)
attr title throughput
attr unit bps
678	5597370 3100 45056 45056 0.1 17.808467693922 179 0 0 0 0
vector 679 GradysNetwork.quads[3].wlan[0].mac.dcf.channelAccess.pendingQueue outgoingDataRate:vector ETV
attr interpolationmode linear
attr recordingmode vector
attr source throughput(packetPulled)
attr title "outgoing datarate"
attr unit bps
679	5600470 3100 45056 45056 0.1 17.808467693922 179 0 0 0 0
vector 680 GradysNetwork.quads[3].wlan[0].mac.dcf.channelAccess.pendingQueue incomingDataRate:vector ETV
attr interpolationmode linear
attr recordingmode vector
attr source throughput(packetPushStarted)
attr title "incoming datarate"
attr unit bps
680	5603570 3100 45056 45056 0.1 17.808467693922 179 0 0 0 0
vector 681 GradysNetwork.quads[3].app[0] throughput:vector ETV
attr recordingmode vector
attr source throughput(packetReceived)
attr title throughput
attr unit bps
681	5606670 3100 45056 45056 0.1 17.808467693922 179 0 0 0 0
vector 682 GradysNetwork.farm.wlan[0].mac.dcf.channelAccess.pendingQueue outgoingDataRate:vector ETV
attr interpolationmode linear
attr recordingmode vector
attr source throughput(packetPulled)
attr title "outgoing datarate"
attr unit bps
682	5609770 3100 45056 45056 0.1 17.808467693922 179 0 0 0 0
vector 683 GradysNetwork.farm.wlan[0].mac.dcf.channelAccess.pendingQueue incomingDataRate:vector ETV
attr interpolationmode linear
attr recordingmode vector
attr source throughput(packetPushStarted)
attr title "incoming datarate"
attr unit bps
683	5612870 3102 45056 45056 0.1 17.808467693922 179 0 0 0 0
